
     RDKit          3D

 19 19  0  0  0  0  0  0  0  0999 V2000
    0.3668   -0.8965   -0.8538 C   0  0  0  0  0  0  0  0  0  0  0  0
   -1.0752   -0.3878   -0.6091 C   0  0  1  0  0  0  0  0  0  0  0  0
   -0.9424    0.5589    0.5990 C   0  0  1  0  0  0  0  0  0  0  0  0
   -1.8386    0.0732    1.7406 C   0  0  0  0  0  0  0  0  0  0  0  0
    2.4885   -0.3344    0.2366 O   0  0  0  0  0  0  0  0  0  0  0  0
   -1.5551    0.3234   -1.7519 O   0  0  0  0  0  0  0  0  0  0  0  0
    0.4333    0.5334    1.0140 O   0  0  0  0  0  0  0  0  0  0  0  0
   -1.7997    1.0181    2.8113 O   0  0  0  0  0  0  0  0  0  0  0  0
    1.2176    0.1921   -0.1501 C   0  0  2  0  0  0  0  0  0  0  0  0
    0.5198   -1.8703   -0.3888 H   0  0  0  0  0  0  0  0  0  0  0  0
    0.5903   -0.9355   -1.9193 H   0  0  0  0  0  0  0  0  0  0  0  0
   -1.7376   -1.2207   -0.3716 H   0  0  0  0  0  0  0  0  0  0  0  0
    1.3436    1.0594   -0.7981 H   0  0  0  0  0  0  0  0  0  0  0  0
   -1.2268    1.5701    0.3100 H   0  0  0  0  0  0  0  0  0  0  0  0
   -1.6019   -0.2106   -2.5568 H   0  0  0  0  0  0  0  0  0  0  0  0
   -2.8631   -0.0260    1.3810 H   0  0  0  0  0  0  0  0  0  0  0  0
   -1.4832   -0.8941    2.0954 H   0  0  0  0  0  0  0  0  0  0  0  0
   -2.3462    0.7754    3.5718 H   0  0  0  0  0  0  0  0  0  0  0  0
    3.0606    0.3053    0.6809 H   0  0  0  0  0  0  0  0  0  0  0  0
  1  2  1  0
  1  9  1  0
  2  3  1  0
  2  6  1  0
  3  4  1  0
  3  7  1  0
  4  8  1  0
  5  9  1  0
  7  9  1  0
  1 10  1  0
  1 11  1  0
  2 12  1  1
  9 13  1  6
  3 14  1  6
  6 15  1  0
  4 16  1  0
  4 17  1  0
  8 18  1  0
  5 19  1  0
M  END

$$$$
