
     RDKit          3D

255266  0  0  0  0  0  0  0  0999 V2000
    6.6296   -5.7522   -9.3288 C   0  0  2  0  0  0  0  0  0  0  0  0
    6.8552   -7.0897   -8.6193 C   0  0  1  0  0  0  0  0  0  0  0  0
    8.1610   -7.0213   -7.8207 C   0  0  2  0  0  0  0  0  0  0  0  0
    9.3091   -6.6647   -8.7700 C   0  0  1  0  0  0  0  0  0  0  0  0
    8.9883   -5.3446   -9.4739 C   0  0  1  0  0  0  0  0  0  0  0  0
   10.1023   -5.0119  -10.4677 C   0  0  0  0  0  0  0  0  0  0  0  0
    5.7657   -7.3499   -7.7323 O   0  0  0  0  0  0  0  0  0  0  0  0
    8.4178   -8.2898   -7.2147 O   0  0  0  0  0  0  0  0  0  0  0  0
   10.5201   -6.5273   -8.0238 O   0  0  0  0  0  0  0  0  0  0  0  0
    7.7478   -5.4667  -10.1719 O   0  0  0  0  0  0  0  0  0  0  0  0
    9.8633   -3.7240  -11.0394 O   0  0  0  0  0  0  0  0  0  0  0  0
    5.8053   -5.9204  -10.0247 H   0  0  0  0  0  0  0  0  0  0  0  0
    6.9049   -7.9133   -9.3414 H   0  0  0  0  0  0  0  0  0  0  0  0
    8.0908   -6.3004   -6.9971 H   0  0  0  0  0  0  0  0  0  0  0  0
    9.4576   -7.4760   -9.4936 H   0  0  0  0  0  0  0  0  0  0  0  0
    8.9225   -4.5246   -8.7510 H   0  0  0  0  0  0  0  0  0  0  0  0
   11.0847   -4.9842   -9.9874 H   0  0  0  0  0  0  0  0  0  0  0  0
   10.1186   -5.7373  -11.2881 H   0  0  0  0  0  0  0  0  0  0  0  0
    4.9760   -6.8981   -8.0941 H   0  0  0  0  0  0  0  0  0  0  0  0
    7.5718   -8.5402   -6.7892 H   0  0  0  0  0  0  0  0  0  0  0  0
   10.5351   -7.2984   -7.4202 H   0  0  0  0  0  0  0  0  0  0  0  0
   10.5388   -3.5962  -11.7271 H   0  0  0  0  0  0  0  0  0  0  0  0
    3.4455   -1.6737   -8.8105 C   0  0  2  0  0  0  0  0  0  0  0  0
    3.0960   -3.0336   -9.4200 C   0  0  1  0  0  0  0  0  0  0  0  0
    4.0142   -4.1041   -8.8211 C   0  0  2  0  0  0  0  0  0  0  0  0
    5.4726   -3.7099   -9.0743 C   0  0  1  0  0  0  0  0  0  0  0  0
    5.7298   -2.3241   -8.4789 C   0  0  1  0  0  0  0  0  0  0  0  0
    7.1676   -1.8979   -8.7798 C   0  0  0  0  0  0  0  0  0  0  0  0
    1.7347   -3.3532   -9.1265 O   0  0  0  0  0  0  0  0  0  0  0  0
    3.7450   -5.3646   -9.4384 O   0  0  0  0  0  0  0  0  0  0  0  0
    6.3389   -4.6643   -8.4571 O   0  0  0  0  0  0  0  0  0  0  0  0
    4.8231   -1.3827   -9.0558 O   0  0  0  0  0  0  0  0  0  0  0  0
    7.4450   -0.6581   -8.1253 O   0  0  0  0  0  0  0  0  0  0  0  0
    2.9055   -0.9341   -9.4047 H   0  0  0  0  0  0  0  0  0  0  0  0
    3.2095   -3.0156  -10.5105 H   0  0  0  0  0  0  0  0  0  0  0  0
    3.8225   -4.2444   -7.7504 H   0  0  0  0  0  0  0  0  0  0  0  0
    5.6615   -3.6738  -10.1574 H   0  0  0  0  0  0  0  0  0  0  0  0
    5.6003   -2.3381   -7.3917 H   0  0  0  0  0  0  0  0  0  0  0  0
    7.8925   -2.6235   -8.4086 H   0  0  0  0  0  0  0  0  0  0  0  0
    7.3137   -1.7464   -9.8545 H   0  0  0  0  0  0  0  0  0  0  0  0
    1.2475   -2.5086   -9.0334 H   0  0  0  0  0  0  0  0  0  0  0  0
    2.7663   -5.4235   -9.4612 H   0  0  0  0  0  0  0  0  0  0  0  0
    8.3217   -0.3753   -8.4386 H   0  0  0  0  0  0  0  0  0  0  0  0
    1.2980    1.6234   -5.4106 C   0  0  2  0  0  0  0  0  0  0  0  0
    0.8879    1.4221   -6.8715 C   0  0  1  0  0  0  0  0  0  0  0  0
    1.2665    0.0035   -7.3093 C   0  0  2  0  0  0  0  0  0  0  0  0
    2.7689   -0.2020   -7.0927 C   0  0  1  0  0  0  0  0  0  0  0  0
    3.1062    0.0627   -5.6239 C   0  0  1  0  0  0  0  0  0  0  0  0
    4.6141   -0.0822   -5.4121 C   0  0  0  0  0  0  0  0  0  0  0  0
   -0.5238    1.6012   -7.0006 O   0  0  0  0  0  0  0  0  0  0  0  0
    0.9546   -0.1690   -8.6933 O   0  0  0  0  0  0  0  0  0  0  0  0
    3.1204   -1.5456   -7.4300 O   0  0  0  0  0  0  0  0  0  0  0  0
    2.7009    1.3871   -5.2738 O   0  0  0  0  0  0  0  0  0  0  0  0
    4.9156    0.0488   -4.0214 O   0  0  0  0  0  0  0  0  0  0  0  0
    1.1859    2.6915   -5.2149 H   0  0  0  0  0  0  0  0  0  0  0  0
    1.3805    2.1547   -7.5219 H   0  0  0  0  0  0  0  0  0  0  0  0
    0.6820   -0.7523   -6.7710 H   0  0  0  0  0  0  0  0  0  0  0  0
    3.3315    0.5043   -7.7210 H   0  0  0  0  0  0  0  0  0  0  0  0
    2.6013   -0.6577   -4.9711 H   0  0  0  0  0  0  0  0  0  0  0  0
    4.9762   -1.0622   -5.7256 H   0  0  0  0  0  0  0  0  0  0  0  0
    5.1613    0.7020   -5.9457 H   0  0  0  0  0  0  0  0  0  0  0  0
   -0.8028    2.2396   -6.3121 H   0  0  0  0  0  0  0  0  0  0  0  0
    0.0648    0.2304   -8.7969 H   0  0  0  0  0  0  0  0  0  0  0  0
    5.8838    0.0673   -3.9393 H   0  0  0  0  0  0  0  0  0  0  0  0
   -1.1049    2.0062   -0.8149 C   0  0  2  0  0  0  0  0  0  0  0  0
   -1.0062    3.0938   -1.8874 C   0  0  1  0  0  0  0  0  0  0  0  0
   -0.8297    2.4335   -3.2586 C   0  0  2  0  0  0  0  0  0  0  0  0
    0.4106    1.5351   -3.2245 C   0  0  1  0  0  0  0  0  0  0  0  0
    0.2573    0.5086   -2.1003 C   0  0  1  0  0  0  0  0  0  0  0  0
    1.5180   -0.3540   -2.0212 C   0  0  0  0  0  0  0  0  0  0  0  0
   -2.2010    3.8774   -1.8847 O   0  0  0  0  0  0  0  0  0  0  0  0
   -0.6626    3.4422   -4.2571 O   0  0  0  0  0  0  0  0  0  0  0  0
    0.5439    0.8580   -4.4760 O   0  0  0  0  0  0  0  0  0  0  0  0
    0.0663    1.1881   -0.8582 O   0  0  0  0  0  0  0  0  0  0  0  0
    1.3751   -1.3131   -0.9710 O   0  0  0  0  0  0  0  0  0  0  0  0
   -1.0335    2.5256    0.1427 H   0  0  0  0  0  0  0  0  0  0  0  0
   -0.1630    3.7659   -1.6883 H   0  0  0  0  0  0  0  0  0  0  0  0
   -1.7219    1.8656   -3.5487 H   0  0  0  0  0  0  0  0  0  0  0  0
    1.3028    2.1485   -3.0302 H   0  0  0  0  0  0  0  0  0  0  0  0
   -0.5939   -0.1538   -2.2889 H   0  0  0  0  0  0  0  0  0  0  0  0
    1.6754   -0.8913   -2.9603 H   0  0  0  0  0  0  0  0  0  0  0  0
    2.3820    0.2886   -1.8204 H   0  0  0  0  0  0  0  0  0  0  0  0
   -2.5449    3.8878   -0.9678 H   0  0  0  0  0  0  0  0  0  0  0  0
   -1.3395    4.1184   -4.0414 H   0  0  0  0  0  0  0  0  0  0  0  0
   -4.8235   -0.0148    2.2065 C   0  0  2  0  0  0  0  0  0  0  0  0
   -4.1081    1.3230    2.4099 C   0  0  1  0  0  0  0  0  0  0  0  0
   -3.6129    1.8396    1.0551 C   0  0  2  0  0  0  0  0  0  0  0  0
   -2.7032    0.7834    0.4199 C   0  0  1  0  0  0  0  0  0  0  0  0
   -3.4726   -0.5332    0.2941 C   0  0  1  0  0  0  0  0  0  0  0  0
   -2.5523   -1.6092   -0.2844 C   0  0  0  0  0  0  0  0  0  0  0  0
   -5.0155    2.2685    2.9791 O   0  0  0  0  0  0  0  0  0  0  0  0
   -2.8793    3.0513    1.2447 O   0  0  0  0  0  0  0  0  0  0  0  0
   -2.2933    1.2239   -0.8764 O   0  0  0  0  0  0  0  0  0  0  0  0
   -3.9310   -0.9415    1.5841 O   0  0  0  0  0  0  0  0  0  0  0  0
   -3.3003   -2.8055   -0.5117 O   0  0  0  0  0  0  0  0  0  0  0  0
   -4.9795   -0.4235    3.2067 H   0  0  0  0  0  0  0  0  0  0  0  0
   -3.2609    1.2142    3.0975 H   0  0  0  0  0  0  0  0  0  0  0  0
   -4.4487    2.0924    0.3917 H   0  0  0  0  0  0  0  0  0  0  0  0
   -1.8228    0.6226    1.0597 H   0  0  0  0  0  0  0  0  0  0  0  0
   -4.3284   -0.4203   -0.3797 H   0  0  0  0  0  0  0  0  0  0  0  0
   -2.1306   -1.3097   -1.2447 H   0  0  0  0  0  0  0  0  0  0  0  0
   -1.7441   -1.8507    0.4141 H   0  0  0  0  0  0  0  0  0  0  0  0
   -5.6714    1.7690    3.5079 H   0  0  0  0  0  0  0  0  0  0  0  0
   -3.4240    3.5746    1.8707 H   0  0  0  0  0  0  0  0  0  0  0  0
   -2.6664   -3.4921   -0.7810 H   0  0  0  0  0  0  0  0  0  0  0  0
   -9.7249   -1.7490    2.3111 C   0  0  2  0  0  0  0  0  0  0  0  0
   -8.8440   -1.4267    3.5208 C   0  0  1  0  0  0  0  0  0  0  0  0
   -7.7985   -0.3819    3.1174 C   0  0  2  0  0  0  0  0  0  0  0  0
   -6.9880   -0.9176    1.9331 C   0  0  1  0  0  0  0  0  0  0  0  0
   -7.9404   -1.2601    0.7856 C   0  0  1  0  0  0  0  0  0  0  0  0
   -7.1447   -1.8516   -0.3791 C   0  0  0  0  0  0  0  0  0  0  0  0
   -9.6542   -0.9086    4.5774 O   0  0  0  0  0  0  0  0  0  0  0  0
   -6.9249   -0.1294    4.2199 O   0  0  0  0  0  0  0  0  0  0  0  0
   -6.0577    0.0780    1.5021 O   0  0  0  0  0  0  0  0  0  0  0  0
   -8.9051   -2.2126    1.2361 O   0  0  0  0  0  0  0  0  0  0  0  0
   -8.0146   -2.0626   -1.4932 O   0  0  0  0  0  0  0  0  0  0  0  0
  -10.3128   -2.6236    2.5962 H   0  0  0  0  0  0  0  0  0  0  0  0
   -8.3431   -2.3284    3.8926 H   0  0  0  0  0  0  0  0  0  0  0  0
   -8.2651    0.5803    2.8745 H   0  0  0  0  0  0  0  0  0  0  0  0
   -6.4517   -1.8291    2.2361 H   0  0  0  0  0  0  0  0  0  0  0  0
   -8.4532   -0.3622    0.4251 H   0  0  0  0  0  0  0  0  0  0  0  0
   -6.3541   -1.1794   -0.7148 H   0  0  0  0  0  0  0  0  0  0  0  0
   -6.7141   -2.8206   -0.1054 H   0  0  0  0  0  0  0  0  0  0  0  0
  -10.5523   -1.2857    4.4741 H   0  0  0  0  0  0  0  0  0  0  0  0
   -7.5229   -0.0437    4.9929 H   0  0  0  0  0  0  0  0  0  0  0  0
   -7.5008   -2.5656   -2.1488 H   0  0  0  0  0  0  0  0  0  0  0  0
  -14.6032   -0.7659    0.8021 C   0  0  2  0  0  0  0  0  0  0  0  0
  -14.1584   -1.8036    1.8357 C   0  0  1  0  0  0  0  0  0  0  0  0
  -12.8299   -1.3585    2.4557 C   0  0  2  0  0  0  0  0  0  0  0  0
  -11.7972   -1.1676    1.3406 C   0  0  1  0  0  0  0  0  0  0  0  0
  -12.3335   -0.1552    0.3264 C   0  0  1  0  0  0  0  0  0  0  0  0
  -11.3338   -0.0038   -0.8214 C   0  0  0  0  0  0  0  0  0  0  0  0
  -15.1497   -1.9147    2.8586 O   0  0  0  0  0  0  0  0  0  0  0  0
  -12.3697   -2.3576    3.3682 O   0  0  0  0  0  0  0  0  0  0  0  0
  -10.5748   -0.6828    1.9002 O   0  0  0  0  0  0  0  0  0  0  0  0
  -13.5843   -0.6147   -0.1887 O   0  0  0  0  0  0  0  0  0  0  0  0
  -11.7772    1.0256   -1.7080 O   0  0  0  0  0  0  0  0  0  0  0  0
  -15.4359   -1.2215    0.2629 H   0  0  0  0  0  0  0  0  0  0  0  0
  -14.0398   -2.7912    1.3741 H   0  0  0  0  0  0  0  0  0  0  0  0
  -12.9492   -0.4418    3.0457 H   0  0  0  0  0  0  0  0  0  0  0  0
  -11.6245   -2.1268    0.8305 H   0  0  0  0  0  0  0  0  0  0  0  0
  -12.4677    0.8270    0.7914 H   0  0  0  0  0  0  0  0  0  0  0  0
  -10.3452    0.2872   -0.4640 H   0  0  0  0  0  0  0  0  0  0  0  0
  -11.2594   -0.9311   -1.3993 H   0  0  0  0  0  0  0  0  0  0  0  0
  -16.0143   -1.6908    2.4569 H   0  0  0  0  0  0  0  0  0  0  0  0
  -13.1661   -2.6051    3.8846 H   0  0  0  0  0  0  0  0  0  0  0  0
  -11.1872    0.9911   -2.4811 H   0  0  0  0  0  0  0  0  0  0  0  0
  -18.2736    2.9005    0.4464 C   0  0  1  0  0  0  0  0  0  0  0  0
  -18.4708    1.3916    0.2809 C   0  0  1  0  0  0  0  0  0  0  0  0
  -17.3835    0.6531    1.0683 C   0  0  2  0  0  0  0  0  0  0  0  0
  -16.0087    1.1179    0.5778 C   0  0  1  0  0  0  0  0  0  0  0  0
  -15.9071    2.6369    0.7310 C   0  0  1  0  0  0  0  0  0  0  0  0
  -14.5598    3.1159    0.1879 C   0  0  0  0  0  0  0  0  0  0  0  0
  -18.4216    3.2519    1.8226 O   0  0  0  0  0  0  0  0  0  0  0  0
  -19.7573    1.0204    0.7796 O   0  0  0  0  0  0  0  0  0  0  0  0
  -17.5151   -0.7546    0.8599 O   0  0  0  0  0  0  0  0  0  0  0  0
  -14.9873    0.4891    1.3548 O   0  0  0  0  0  0  0  0  0  0  0  0
  -16.9645    3.2606   -0.0000 O   0  0  0  0  0  0  0  0  0  0  0  0
  -14.4152    4.5157    0.4367 O   0  0  0  0  0  0  0  0  0  0  0  0
  -19.0211    3.4541   -0.1310 H   0  0  0  0  0  0  0  0  0  0  0  0
  -18.4281    1.1036   -0.7758 H   0  0  0  0  0  0  0  0  0  0  0  0
  -17.4901    0.8041    2.1490 H   0  0  0  0  0  0  0  0  0  0  0  0
  -15.8892    0.8573   -0.4842 H   0  0  0  0  0  0  0  0  0  0  0  0
  -15.9657    2.9366    1.7853 H   0  0  0  0  0  0  0  0  0  0  0  0
  -13.7236    2.6166    0.6792 H   0  0  0  0  0  0  0  0  0  0  0  0
  -14.4972    2.9627   -0.8946 H   0  0  0  0  0  0  0  0  0  0  0  0
  -18.3501    4.2243    1.8300 H   0  0  0  0  0  0  0  0  0  0  0  0
  -19.8754    1.5186    1.6149 H   0  0  0  0  0  0  0  0  0  0  0  0
  -18.4793   -0.9300    0.8792 H   0  0  0  0  0  0  0  0  0  0  0  0
  -13.5945    4.7895   -0.0082 H   0  0  0  0  0  0  0  0  0  0  0  0
    9.4514    5.6041    8.3378 C   0  0  2  0  0  0  0  0  0  0  0  0
    9.8335    6.8998    7.6179 C   0  0  1  0  0  0  0  0  0  0  0  0
   11.2273    6.7407    7.0021 C   0  0  2  0  0  0  0  0  0  0  0  0
   12.2227    6.3731    8.1069 C   0  0  1  0  0  0  0  0  0  0  0  0
   11.7479    5.0987    8.8081 C   0  0  1  0  0  0  0  0  0  0  0  0
   12.7049    4.7583    9.9517 C   0  0  0  0  0  0  0  0  0  0  0  0
    8.8833    7.1711    6.5860 O   0  0  0  0  0  0  0  0  0  0  0  0
   11.6234    7.9705    6.3913 O   0  0  0  0  0  0  0  0  0  0  0  0
   13.5124    6.1515    7.5329 O   0  0  0  0  0  0  0  0  0  0  0  0
   10.4345    5.3043    9.3310 O   0  0  0  0  0  0  0  0  0  0  0  0
   12.3300    3.5070   10.5315 O   0  0  0  0  0  0  0  0  0  0  0  0
    8.5526    5.8372    8.9122 H   0  0  0  0  0  0  0  0  0  0  0  0
    9.8291    7.7495    8.3109 H   0  0  0  0  0  0  0  0  0  0  0  0
   11.2298    5.9903    6.2023 H   0  0  0  0  0  0  0  0  0  0  0  0
   12.3152    7.2062    8.8149 H   0  0  0  0  0  0  0  0  0  0  0  0
   11.7368    4.2533    8.1121 H   0  0  0  0  0  0  0  0  0  0  0  0
   13.7390    4.6673    9.6070 H   0  0  0  0  0  0  0  0  0  0  0  0
   12.6495    5.5156   10.7410 H   0  0  0  0  0  0  0  0  0  0  0  0
    8.0308    6.7726    6.8563 H   0  0  0  0  0  0  0  0  0  0  0  0
   10.8534    8.2407    5.8493 H   0  0  0  0  0  0  0  0  0  0  0  0
   13.6444    6.8962    6.9107 H   0  0  0  0  0  0  0  0  0  0  0  0
   12.9000    3.3800   11.3090 H   0  0  0  0  0  0  0  0  0  0  0  0
    6.1649    1.6527    7.5461 C   0  0  2  0  0  0  0  0  0  0  0  0
    5.8064    3.0508    8.0558 C   0  0  1  0  0  0  0  0  0  0  0  0
    6.8465    4.0538    7.5465 C   0  0  2  0  0  0  0  0  0  0  0  0
    8.2382    3.6062    8.0043 C   0  0  1  0  0  0  0  0  0  0  0  0
    8.5022    2.1870    7.4972 C   0  0  1  0  0  0  0  0  0  0  0  0
    9.8656    1.7103    8.0005 C   0  0  0  0  0  0  0  0  0  0  0  0
    4.5125    3.4179    7.5737 O   0  0  0  0  0  0  0  0  0  0  0  0
    6.5617    5.3494    8.0782 O   0  0  0  0  0  0  0  0  0  0  0  0
    9.2237    4.4950    7.4740 O   0  0  0  0  0  0  0  0  0  0  0  0
    7.4826    1.3113    7.9816 O   0  0  0  0  0  0  0  0  0  0  0  0
   10.1645    0.4334    7.4325 O   0  0  0  0  0  0  0  0  0  0  0  0
    5.5160    0.9629    8.0892 H   0  0  0  0  0  0  0  0  0  0  0  0
    5.7753    3.0727    9.1517 H   0  0  0  0  0  0  0  0  0  0  0  0
    6.8035    4.1582    6.4557 H   0  0  0  0  0  0  0  0  0  0  0  0
    8.2820    3.6066    9.1035 H   0  0  0  0  0  0  0  0  0  0  0  0
    8.5166    2.1618    6.4025 H   0  0  0  0  0  0  0  0  0  0  0  0
   10.6677    2.3871    7.7034 H   0  0  0  0  0  0  0  0  0  0  0  0
    9.8623    1.5970    9.0898 H   0  0  0  0  0  0  0  0  0  0  0  0
    4.0048    2.5926    7.4312 H   0  0  0  0  0  0  0  0  0  0  0  0
    5.5931    5.4545    7.9644 H   0  0  0  0  0  0  0  0  0  0  0  0
   10.9752    0.1239    7.8728 H   0  0  0  0  0  0  0  0  0  0  0  0
    4.3197   -1.6836    4.0097 C   0  0  2  0  0  0  0  0  0  0  0  0
    3.7327   -1.4042    5.3955 C   0  0  1  0  0  0  0  0  0  0  0  0
    4.1204    0.0131    5.8295 C   0  0  2  0  0  0  0  0  0  0  0  0
    5.6466    0.1427    5.8066 C   0  0  1  0  0  0  0  0  0  0  0  0
    6.1593   -0.1970    4.4056 C   0  0  1  0  0  0  0  0  0  0  0  0
    7.6872   -0.1280    4.3903 C   0  0  0  0  0  0  0  0  0  0  0  0
    2.3092   -1.5151    5.3428 O   0  0  0  0  0  0  0  0  0  0  0  0
    3.6394    0.2563    7.1531 O   0  0  0  0  0  0  0  0  0  0  0  0
    6.0169    1.4822    6.1400 O   0  0  0  0  0  0  0  0  0  0  0  0
    5.7384   -1.5156    4.0516 O   0  0  0  0  0  0  0  0  0  0  0  0
    8.1610   -0.3295    3.0571 O   0  0  0  0  0  0  0  0  0  0  0  0
    4.1814   -2.7529    3.8385 H   0  0  0  0  0  0  0  0  0  0  0  0
    4.0994   -2.1305    6.1306 H   0  0  0  0  0  0  0  0  0  0  0  0
    3.6494    0.7713    5.1923 H   0  0  0  0  0  0  0  0  0  0  0  0
    6.0868   -0.5613    6.5283 H   0  0  0  0  0  0  0  0  0  0  0  0
    5.7797    0.5186    3.6688 H   0  0  0  0  0  0  0  0  0  0  0  0
    8.0532    0.8470    4.7147 H   0  0  0  0  0  0  0  0  0  0  0  0
    8.1202   -0.9130    5.0192 H   0  0  0  0  0  0  0  0  0  0  0  0
    2.0912   -2.1602    4.6391 H   0  0  0  0  0  0  0  0  0  0  0  0
    2.7220   -0.0904    7.1494 H   0  0  0  0  0  0  0  0  0  0  0  0
    9.1294   -0.3995    3.1205 H   0  0  0  0  0  0  0  0  0  0  0  0
    2.5215   -2.1489   -0.8475 C   0  0  2  0  0  0  0  0  0  0  0  0
    2.4254   -3.1948    0.2663 C   0  0  1  0  0  0  0  0  0  0  0  0
    2.4538   -2.4868    1.6248 C   0  0  2  0  0  0  0  0  0  0  0  0
    3.7307   -1.6464    1.7236 C   0  0  1  0  0  0  0  0  0  0  0  0
    3.7764   -0.6614    0.5537 C   0  0  1  0  0  0  0  0  0  0  0  0
    5.0776    0.1405    0.6119 C   0  0  0  0  0  0  0  0  0  0  0  0
    1.2040   -3.9240    0.1330 O   0  0  0  0  0  0  0  0  0  0  0  0
    2.4391   -3.4599    2.6714 O   0  0  0  0  0  0  0  0  0  0  0  0
    3.7327   -0.9248    2.9572 O   0  0  0  0  0  0  0  0  0  0  0  0
    3.7159   -1.3827   -0.6781 O   0  0  0  0  0  0  0  0  0  0  0  0
    5.0687    1.1398   -0.4097 O   0  0  0  0  0  0  0  0  0  0  0  0
    2.6193   -2.6929   -1.7954 H   0  0  0  0  0  0  0  0  0  0  0  0
    3.2522   -3.9121    0.2062 H   0  0  0  0  0  0  0  0  0  0  0  0
    1.5601   -1.8691    1.7744 H   0  0  0  0  0  0  0  0  0  0  0  0
    4.6101   -2.3052    1.6703 H   0  0  0  0  0  0  0  0  0  0  0  0
    2.9397    0.0475    0.6017 H   0  0  0  0  0  0  0  0  0  0  0  0
    5.1945    0.6593    1.5641 H   0  0  0  0  0  0  0  0  0  0  0  0
    5.9428   -0.5073    0.4356 H   0  0  0  0  0  0  0  0  0  0  0  0
    0.5310   -3.2703   -0.1439 H   0  0  0  0  0  0  0  0  0  0  0  0
    1.8146   -4.1538    2.3733 H   0  0  0  0  0  0  0  0  0  0  0  0
    5.9677    1.5070   -0.4482 H   0  0  0  0  0  0  0  0  0  0  0  0
  1  2  1  0
  1 10  1  0
  1 12  1  6
  2  3  1  0
  2  7  1  0
  2 13  1  6
  3  4  1  0
  3  8  1  0
  3 14  1  1
  4  5  1  0
  4  9  1  0
  4 15  1  6
  5  6  1  0
  5 10  1  0
  5 16  1  1
  6 11  1  0
  6 17  1  0
  6 18  1  0
  7 19  1  0
  8 20  1  0
  9 21  1  0
 11 22  1  0
 23 24  1  0
 23 32  1  0
 23 34  1  6
 24 25  1  0
 24 29  1  0
 24 35  1  6
 25 26  1  0
 25 30  1  0
 25 36  1  1
 26 27  1  0
 26 31  1  0
 26 37  1  6
 27 28  1  0
 27 32  1  0
 27 38  1  1
 28 33  1  0
 28 39  1  0
 28 40  1  0
 29 41  1  0
 30 42  1  0
 33 43  1  0
 44 45  1  0
 44 53  1  0
 44 55  1  1
 45 46  1  0
 45 50  1  0
 45 56  1  6
 46 47  1  0
 46 51  1  0
 46 57  1  1
 47 48  1  0
 47 52  1  0
 47 58  1  6
 48 49  1  0
 48 53  1  0
 48 59  1  1
 49 54  1  0
 49 60  1  0
 49 61  1  0
 50 62  1  0
 51 63  1  0
 54 64  1  0
 65 66  1  0
 65 74  1  0
 65 76  1  1
 66 67  1  0
 66 71  1  0
 66 77  1  1
 67 68  1  0
 67 72  1  0
 67 78  1  6
 68 69  1  0
 68 73  1  0
 68 79  1  1
 69 70  1  0
 69 74  1  0
 69 80  1  6
 70 75  1  0
 70 81  1  0
 70 82  1  0
 71 83  1  0
 72 84  1  0
 85 86  1  0
 85 94  1  0
 85 96  1  1
 86 87  1  0
 86 91  1  0
 86 97  1  1
 87 88  1  0
 87 92  1  0
 87 98  1  6
 88 89  1  0
 88 93  1  0
 88 99  1  1
 89 90  1  0
 89 94  1  0
 89100  1  6
 90 95  1  0
 90101  1  0
 90102  1  0
 91103  1  0
 92104  1  0
 95105  1  0
106107  1  0
106115  1  0
106117  1  1
107108  1  0
107112  1  0
107118  1  1
108109  1  0
108113  1  0
108119  1  6
109110  1  0
109114  1  0
109120  1  1
110111  1  0
110115  1  0
110121  1  6
111116  1  0
111122  1  0
111123  1  0
112124  1  0
113125  1  0
116126  1  0
127128  1  0
127136  1  0
127138  1  6
128129  1  0
128133  1  0
128139  1  6
129130  1  0
129134  1  0
129140  1  1
130131  1  0
130135  1  0
130141  1  6
131132  1  0
131136  1  0
131142  1  1
132137  1  0
132143  1  0
132144  1  0
133145  1  0
134146  1  0
137147  1  0
148149  1  0
148154  1  0
148158  1  0
148160  1  6
149150  1  0
149155  1  0
149161  1  6
150151  1  0
150156  1  0
150162  1  1
151152  1  0
151157  1  0
151163  1  6
152153  1  0
152158  1  0
152164  1  1
153159  1  0
153165  1  0
153166  1  0
154167  1  0
155168  1  0
156169  1  0
159170  1  0
171172  1  0
171180  1  0
171182  1  1
172173  1  0
172177  1  0
172183  1  1
173174  1  0
173178  1  0
173184  1  6
174175  1  0
174179  1  0
174185  1  1
175176  1  0
175180  1  0
175186  1  6
176181  1  0
176187  1  0
176188  1  0
177189  1  0
178190  1  0
179191  1  0
181192  1  0
193194  1  0
193202  1  0
193204  1  1
194195  1  0
194199  1  0
194205  1  1
195196  1  0
195200  1  0
195206  1  6
196197  1  0
196201  1  0
196207  1  1
197198  1  0
197202  1  0
197208  1  6
198203  1  0
198209  1  0
198210  1  0
199211  1  0
200212  1  0
203213  1  0
214215  1  0
214223  1  0
214225  1  6
215216  1  0
215220  1  0
215226  1  1
216217  1  0
216221  1  0
216227  1  6
217218  1  0
217222  1  0
217228  1  1
218219  1  0
218223  1  0
218229  1  6
219224  1  0
219230  1  0
219231  1  0
220232  1  0
221233  1  0
224234  1  0
235236  1  0
235244  1  0
235246  1  6
236237  1  0
236241  1  0
236247  1  1
237238  1  0
237242  1  0
237248  1  1
238239  1  0
238243  1  0
238249  1  1
239240  1  0
239244  1  0
239250  1  1
240245  1  0
240251  1  0
240252  1  0
241253  1  0
242254  1  0
245255  1  0
  1 31  1  0
 23 52  1  0
 44 73  1  0
 65 93  1  0
 85114  1  0
106135  1  0
127157  1  0
171201  1  0
193222  1  0
214243  1  0
235 75  1  0
M  END

$$$$
