
     RDKit          3D

213222  0  0  0  0  0  0  0  0999 V2000
   16.7659   -2.6263    0.0863 C   0  0  2  0  0  0  0  0  0  0  0  0
   17.0525   -2.9950    1.5440 C   0  0  1  0  0  0  0  0  0  0  0  0
   17.8668   -1.8728    2.1959 C   0  0  2  0  0  0  0  0  0  0  0  0
   19.1494   -1.6521    1.3880 C   0  0  1  0  0  0  0  0  0  0  0  0
   18.7818   -1.3362   -0.0632 C   0  0  1  0  0  0  0  0  0  0  0  0
   20.0586   -1.1734   -0.8895 C   0  0  0  0  0  0  0  0  0  0  0  0
   15.8193   -3.1606    2.2464 O   0  0  0  0  0  0  0  0  0  0  0  0
   18.2025   -2.2416    3.5352 O   0  0  0  0  0  0  0  0  0  0  0  0
   19.8822   -0.5591    1.9451 O   0  0  0  0  0  0  0  0  0  0  0  0
   18.0001   -2.4049   -0.5996 O   0  0  0  0  0  0  0  0  0  0  0  0
   19.7198   -0.7634   -2.2160 O   0  0  0  0  0  0  0  0  0  0  0  0
   16.3614   -3.5295   -0.3747 H   0  0  0  0  0  0  0  0  0  0  0  0
   17.6054   -3.9397    1.6083 H   0  0  0  0  0  0  0  0  0  0  0  0
   17.2843   -0.9468    2.2734 H   0  0  0  0  0  0  0  0  0  0  0  0
   19.7862   -2.5433    1.4525 H   0  0  0  0  0  0  0  0  0  0  0  0
   18.2156   -0.4010   -0.1259 H   0  0  0  0  0  0  0  0  0  0  0  0
   20.7252   -0.4152   -0.4684 H   0  0  0  0  0  0  0  0  0  0  0  0
   20.5936   -2.1259   -0.9669 H   0  0  0  0  0  0  0  0  0  0  0  0
   15.1459   -3.4496    1.5971 H   0  0  0  0  0  0  0  0  0  0  0  0
   17.3620   -2.5576    3.9266 H   0  0  0  0  0  0  0  0  0  0  0  0
   19.8722   -0.7137    2.9121 H   0  0  0  0  0  0  0  0  0  0  0  0
   20.5468   -0.7688   -2.7275 H   0  0  0  0  0  0  0  0  0  0  0  0
   12.6483   -1.1061   -2.7022 C   0  0  2  0  0  0  0  0  0  0  0  0
   12.9536   -2.5281   -2.2250 C   0  0  1  0  0  0  0  0  0  0  0  0
   13.8184   -2.4600   -0.9620 C   0  0  2  0  0  0  0  0  0  0  0  0
   15.0900   -1.6632   -1.2696 C   0  0  1  0  0  0  0  0  0  0  0  0
   14.7021   -0.2755   -1.7842 C   0  0  1  0  0  0  0  0  0  0  0  0
   15.9656    0.5050   -2.1500 C   0  0  0  0  0  0  0  0  0  0  0  0
   11.7310   -3.2064   -1.9309 O   0  0  0  0  0  0  0  0  0  0  0  0
   14.1701   -3.7829   -0.5515 O   0  0  0  0  0  0  0  0  0  0  0  0
   15.8703   -1.5316   -0.0795 O   0  0  0  0  0  0  0  0  0  0  0  0
   13.8742   -0.4111   -2.9405 O   0  0  0  0  0  0  0  0  0  0  0  0
   15.6122    1.8397   -2.5190 O   0  0  0  0  0  0  0  0  0  0  0  0
   12.2044   -1.2143   -3.6937 H   0  0  0  0  0  0  0  0  0  0  0  0
   13.4761   -3.0989   -3.0018 H   0  0  0  0  0  0  0  0  0  0  0  0
   13.2685   -2.0186   -0.1221 H   0  0  0  0  0  0  0  0  0  0  0  0
   15.6709   -2.1825   -2.0463 H   0  0  0  0  0  0  0  0  0  0  0  0
   14.1656    0.2885   -1.0140 H   0  0  0  0  0  0  0  0  0  0  0  0
   16.6556    0.5790   -1.3085 H   0  0  0  0  0  0  0  0  0  0  0  0
   16.4737    0.0472   -3.0053 H   0  0  0  0  0  0  0  0  0  0  0  0
   11.0338   -2.8185   -2.4990 H   0  0  0  0  0  0  0  0  0  0  0  0
   13.3353   -4.2929   -0.6232 H   0  0  0  0  0  0  0  0  0  0  0  0
   16.4257    2.2512   -2.8593 H   0  0  0  0  0  0  0  0  0  0  0  0
    8.5245    2.0605   -2.7930 C   0  0  2  0  0  0  0  0  0  0  0  0
    8.7928    0.8830   -3.7335 C   0  0  1  0  0  0  0  0  0  0  0  0
    9.6861   -0.1370   -3.0201 C   0  0  2  0  0  0  0  0  0  0  0  0
   10.9766    0.5561   -2.5720 C   0  0  1  0  0  0  0  0  0  0  0  0
   10.6238    1.7461   -1.6772 C   0  0  1  0  0  0  0  0  0  0  0  0
   11.9043    2.4792   -1.2742 C   0  0  0  0  0  0  0  0  0  0  0  0
    7.5550    0.2660   -4.0919 O   0  0  0  0  0  0  0  0  0  0  0  0
   10.0026   -1.2045   -3.9160 O   0  0  0  0  0  0  0  0  0  0  0  0
   11.7860   -0.3682   -1.8419 O   0  0  0  0  0  0  0  0  0  0  0  0
    9.7673    2.6401   -2.3902 O   0  0  0  0  0  0  0  0  0  0  0  0
   11.5874    3.5183   -0.3456 O   0  0  0  0  0  0  0  0  0  0  0  0
    8.0562    2.8314   -3.4080 H   0  0  0  0  0  0  0  0  0  0  0  0
    9.2794    1.2209   -4.6562 H   0  0  0  0  0  0  0  0  0  0  0  0
    9.1692   -0.5986   -2.1701 H   0  0  0  0  0  0  0  0  0  0  0  0
   11.5233    0.9220   -3.4537 H   0  0  0  0  0  0  0  0  0  0  0  0
   10.1230    1.4101   -0.7632 H   0  0  0  0  0  0  0  0  0  0  0  0
   12.6144    1.8152   -0.7796 H   0  0  0  0  0  0  0  0  0  0  0  0
   12.3784    2.9445   -2.1448 H   0  0  0  0  0  0  0  0  0  0  0  0
    6.8595    0.9546   -4.0527 H   0  0  0  0  0  0  0  0  0  0  0  0
    9.1509   -1.4207   -4.3520 H   0  0  0  0  0  0  0  0  0  0  0  0
   12.4042    4.0338   -0.2265 H   0  0  0  0  0  0  0  0  0  0  0  0
    4.5066    3.8698   -0.0317 C   0  0  2  0  0  0  0  0  0  0  0  0
    4.7157    4.0128   -1.5413 C   0  0  1  0  0  0  0  0  0  0  0  0
    5.5899    2.8574   -2.0396 C   0  0  2  0  0  0  0  0  0  0  0  0
    6.9118    2.8612   -1.2657 C   0  0  1  0  0  0  0  0  0  0  0  0
    6.6178    2.7634    0.2327 C   0  0  1  0  0  0  0  0  0  0  0  0
    7.9301    2.8268    1.0158 C   0  0  0  0  0  0  0  0  0  0  0  0
    3.4508    3.9755   -2.2046 O   0  0  0  0  0  0  0  0  0  0  0  0
    5.8517    3.0232   -3.4347 O   0  0  0  0  0  0  0  0  0  0  0  0
    7.7057    1.7443   -1.6716 O   0  0  0  0  0  0  0  0  0  0  0  0
    5.7763    3.8495    0.6243 O   0  0  0  0  0  0  0  0  0  0  0  0
    7.6677    2.6181    2.4050 O   0  0  0  0  0  0  0  0  0  0  0  0
    4.0511    4.8065    0.2953 H   0  0  0  0  0  0  0  0  0  0  0  0
    5.1934    4.9699   -1.7822 H   0  0  0  0  0  0  0  0  0  0  0  0
    5.0762    1.8935   -1.9406 H   0  0  0  0  0  0  0  0  0  0  0  0
    7.4513    3.7994   -1.4632 H   0  0  0  0  0  0  0  0  0  0  0  0
    6.1258    1.8146    0.4710 H   0  0  0  0  0  0  0  0  0  0  0  0
    8.6284    2.0495    0.7029 H   0  0  0  0  0  0  0  0  0  0  0  0
    8.4006    3.8101    0.9102 H   0  0  0  0  0  0  0  0  0  0  0  0
    2.7796    4.3206   -1.5803 H   0  0  0  0  0  0  0  0  0  0  0  0
    4.9843    3.2707   -3.8203 H   0  0  0  0  0  0  0  0  0  0  0  0
    8.5024    2.8040    2.8695 H   0  0  0  0  0  0  0  0  0  0  0  0
    0.6108    2.5490    3.1494 C   0  0  2  0  0  0  0  0  0  0  0  0
    0.7921    3.8908    2.4355 C   0  0  1  0  0  0  0  0  0  0  0  0
    1.6167    3.6757    1.1622 C   0  0  2  0  0  0  0  0  0  0  0  0
    2.9543    3.0297    1.5365 C   0  0  1  0  0  0  0  0  0  0  0  0
    2.6893    1.7221    2.2854 C   0  0  1  0  0  0  0  0  0  0  0  0
    4.0195    1.1010    2.7149 C   0  0  0  0  0  0  0  0  0  0  0  0
   -0.4873    4.4259    2.0914 O   0  0  0  0  0  0  0  0  0  0  0  0
    1.8540    4.9342    0.5279 O   0  0  0  0  0  0  0  0  0  0  0  0
    3.7020    2.7583    0.3491 O   0  0  0  0  0  0  0  0  0  0  0  0
    1.8928    1.9886    3.4410 O   0  0  0  0  0  0  0  0  0  0  0  0
    3.7801   -0.1760    3.3101 O   0  0  0  0  0  0  0  0  0  0  0  0
    0.1934    2.7878    4.1295 H   0  0  0  0  0  0  0  0  0  0  0  0
    1.2959    4.6161    3.0855 H   0  0  0  0  0  0  0  0  0  0  0  0
    1.0737    3.0656    0.4303 H   0  0  0  0  0  0  0  0  0  0  0  0
    3.5203    3.7082    2.1919 H   0  0  0  0  0  0  0  0  0  0  0  0
    2.1714    1.0036    1.6415 H   0  0  0  0  0  0  0  0  0  0  0  0
    4.6850    0.9374    1.8663 H   0  0  0  0  0  0  0  0  0  0  0  0
    4.5198    1.7272    3.4611 H   0  0  0  0  0  0  0  0  0  0  0  0
   -1.1332    4.0925    2.7480 H   0  0  0  0  0  0  0  0  0  0  0  0
    0.9873    5.3926    0.5585 H   0  0  0  0  0  0  0  0  0  0  0  0
    4.6296   -0.4621    3.6890 H   0  0  0  0  0  0  0  0  0  0  0  0
   -3.2578   -0.8356    3.9371 C   0  0  2  0  0  0  0  0  0  0  0  0
   -3.0474    0.4961    4.6620 C   0  0  1  0  0  0  0  0  0  0  0  0
   -2.2578    1.4440    3.7535 C   0  0  2  0  0  0  0  0  0  0  0  0
   -0.9346    0.7770    3.3651 C   0  0  1  0  0  0  0  0  0  0  0  0
   -1.2266   -0.5652    2.6912 C   0  0  1  0  0  0  0  0  0  0  0  0
    0.0912   -1.2647    2.3542 C   0  0  0  0  0  0  0  0  0  0  0  0
   -4.3155    1.0770    4.9718 O   0  0  0  0  0  0  0  0  0  0  0  0
   -1.9927    2.6634    4.4500 O   0  0  0  0  0  0  0  0  0  0  0  0
   -0.2219    1.6223    2.4595 O   0  0  0  0  0  0  0  0  0  0  0  0
   -1.9890   -1.3866    3.5773 O   0  0  0  0  0  0  0  0  0  0  0  0
   -0.1775   -2.4616    1.6209 O   0  0  0  0  0  0  0  0  0  0  0  0
   -3.6459   -1.5253    4.6891 H   0  0  0  0  0  0  0  0  0  0  0  0
   -2.5061    0.3487    5.6041 H   0  0  0  0  0  0  0  0  0  0  0  0
   -2.8362    1.7230    2.8645 H   0  0  0  0  0  0  0  0  0  0  0  0
   -0.3327    0.5995    4.2687 H   0  0  0  0  0  0  0  0  0  0  0  0
   -1.7816   -0.4192    1.7586 H   0  0  0  0  0  0  0  0  0  0  0  0
    0.7326   -0.6440    1.7273 H   0  0  0  0  0  0  0  0  0  0  0  0
    0.6277   -1.5469    3.2663 H   0  0  0  0  0  0  0  0  0  0  0  0
   -4.9579    0.3452    5.0776 H   0  0  0  0  0  0  0  0  0  0  0  0
   -2.8429    2.8889    4.8842 H   0  0  0  0  0  0  0  0  0  0  0  0
    0.6699   -2.9356    1.5557 H   0  0  0  0  0  0  0  0  0  0  0  0
   -7.2183   -3.3459    1.6891 C   0  0  2  0  0  0  0  0  0  0  0  0
   -6.9487   -3.2242    3.1909 C   0  0  1  0  0  0  0  0  0  0  0  0
   -6.1477   -1.9453    3.4560 C   0  0  2  0  0  0  0  0  0  0  0  0
   -4.8559   -1.9853    2.6338 C   0  0  1  0  0  0  0  0  0  0  0  0
   -5.2065   -2.1555    1.1542 C   0  0  1  0  0  0  0  0  0  0  0  0
   -3.9200   -2.2564    0.3329 C   0  0  0  0  0  0  0  0  0  0  0  0
   -8.1899   -3.1654    3.8961 O   0  0  0  0  0  0  0  0  0  0  0  0
   -5.8276   -1.8612    4.8463 O   0  0  0  0  0  0  0  0  0  0  0  0
   -4.1352   -0.7650    2.8176 O   0  0  0  0  0  0  0  0  0  0  0  0
   -5.9765   -3.3464    0.9816 O   0  0  0  0  0  0  0  0  0  0  0  0
   -4.2438   -2.2973   -1.0585 O   0  0  0  0  0  0  0  0  0  0  0  0
   -7.6129   -4.3527    1.5386 H   0  0  0  0  0  0  0  0  0  0  0  0
   -6.3925   -4.0936    3.5613 H   0  0  0  0  0  0  0  0  0  0  0  0
   -6.7354   -1.0484    3.2261 H   0  0  0  0  0  0  0  0  0  0  0  0
   -4.2410   -2.8389    2.9555 H   0  0  0  0  0  0  0  0  0  0  0  0
   -5.7761   -1.2949    0.7883 H   0  0  0  0  0  0  0  0  0  0  0  0
   -3.2720   -1.3921    0.4841 H   0  0  0  0  0  0  0  0  0  0  0  0
   -3.3737   -3.1743    0.5744 H   0  0  0  0  0  0  0  0  0  0  0  0
   -8.8541   -3.6531    3.3666 H   0  0  0  0  0  0  0  0  0  0  0  0
   -6.6607   -2.1005    5.3056 H   0  0  0  0  0  0  0  0  0  0  0  0
   -3.4139   -2.5015   -1.5239 H   0  0  0  0  0  0  0  0  0  0  0  0
  -11.3069   -2.8369   -1.4836 C   0  0  2  0  0  0  0  0  0  0  0  0
  -11.0013   -4.0274   -0.5714 C   0  0  1  0  0  0  0  0  0  0  0  0
  -10.1530   -3.5498    0.6117 C   0  0  2  0  0  0  0  0  0  0  0  0
   -8.8811   -2.8837    0.0778 C   0  0  1  0  0  0  0  0  0  0  0  0
   -9.2686   -1.7382   -0.8596 C   0  0  1  0  0  0  0  0  0  0  0  0
   -8.0041   -1.1062   -1.4436 C   0  0  0  0  0  0  0  0  0  0  0  0
  -12.2245   -4.5854   -0.0879 O   0  0  0  0  0  0  0  0  0  0  0  0
   -9.8006   -4.6676    1.4294 O   0  0  0  0  0  0  0  0  0  0  0  0
   -8.1166   -2.3701    1.1706 O   0  0  0  0  0  0  0  0  0  0  0  0
  -10.0812   -2.2452   -1.9198 O   0  0  0  0  0  0  0  0  0  0  0  0
   -8.3587    0.0361   -2.2257 O   0  0  0  0  0  0  0  0  0  0  0  0
  -11.7376   -3.2617   -2.3924 H   0  0  0  0  0  0  0  0  0  0  0  0
  -10.4664   -4.8133   -1.1180 H   0  0  0  0  0  0  0  0  0  0  0  0
  -10.7155   -2.8665    1.2593 H   0  0  0  0  0  0  0  0  0  0  0  0
   -8.2880   -3.6201   -0.4845 H   0  0  0  0  0  0  0  0  0  0  0  0
   -9.8173   -0.9611   -0.3174 H   0  0  0  0  0  0  0  0  0  0  0  0
   -7.3248   -0.7600   -0.6635 H   0  0  0  0  0  0  0  0  0  0  0  0
   -7.4833   -1.8106   -2.1008 H   0  0  0  0  0  0  0  0  0  0  0  0
  -12.9169   -4.4046   -0.7567 H   0  0  0  0  0  0  0  0  0  0  0  0
  -10.6315   -5.1821    1.5144 H   0  0  0  0  0  0  0  0  0  0  0  0
   -7.5457    0.3152   -2.6820 H   0  0  0  0  0  0  0  0  0  0  0  0
  -15.4432    0.0982   -2.6314 C   0  0  2  0  0  0  0  0  0  0  0  0
  -15.1577   -1.3168   -3.1405 C   0  0  1  0  0  0  0  0  0  0  0  0
  -14.2690   -2.0460   -2.1276 C   0  0  2  0  0  0  0  0  0  0  0  0
  -12.9875   -1.2349   -1.9124 C   0  0  1  0  0  0  0  0  0  0  0  0
  -13.3569    0.1765   -1.4516 C   0  0  1  0  0  0  0  0  0  0  0  0
  -12.0849    1.0108   -1.2920 C   0  0  0  0  0  0  0  0  0  0  0  0
  -16.3882   -2.0266   -3.2947 O   0  0  0  0  0  0  0  0  0  0  0  0
  -13.9364   -3.3422   -2.6294 O   0  0  0  0  0  0  0  0  0  0  0  0
  -12.1833   -1.8689   -0.9155 O   0  0  0  0  0  0  0  0  0  0  0  0
  -14.2082    0.7867   -2.4231 O   0  0  0  0  0  0  0  0  0  0  0  0
  -12.4182    2.2906   -0.7501 O   0  0  0  0  0  0  0  0  0  0  0  0
  -15.9071    0.6265   -3.4666 H   0  0  0  0  0  0  0  0  0  0  0  0
  -14.6609   -1.2894   -4.1177 H   0  0  0  0  0  0  0  0  0  0  0  0
  -14.7947   -2.2141   -1.1799 H   0  0  0  0  0  0  0  0  0  0  0  0
  -12.4313   -1.1673   -2.8591 H   0  0  0  0  0  0  0  0  0  0  0  0
  -13.8679    0.1479   -0.4835 H   0  0  0  0  0  0  0  0  0  0  0  0
  -11.3782    0.5470   -0.6027 H   0  0  0  0  0  0  0  0  0  0  0  0
  -11.6018    1.1756   -2.2608 H   0  0  0  0  0  0  0  0  0  0  0  0
  -17.0860   -1.3679   -3.4897 H   0  0  0  0  0  0  0  0  0  0  0  0
  -14.7820   -3.6954   -2.9791 H   0  0  0  0  0  0  0  0  0  0  0  0
  -11.6049    2.8232   -0.7923 H   0  0  0  0  0  0  0  0  0  0  0  0
  -19.5040    2.6652   -0.6411 C   0  0  1  0  0  0  0  0  0  0  0  0
  -19.2763    2.3175   -2.1142 C   0  0  1  0  0  0  0  0  0  0  0  0
  -18.3907    1.0705   -2.2054 C   0  0  2  0  0  0  0  0  0  0  0  0
  -17.0788    1.3338   -1.4598 C   0  0  1  0  0  0  0  0  0  0  0  0
  -17.3914    1.7203   -0.0127 C   0  0  1  0  0  0  0  0  0  0  0  0
  -16.0894    2.0430    0.7223 C   0  0  0  0  0  0  0  0  0  0  0  0
  -20.1979    1.5939   -0.0007 O   0  0  0  0  0  0  0  0  0  0  0  0
  -20.5325    2.0584   -2.7436 O   0  0  0  0  0  0  0  0  0  0  0  0
  -18.1120    0.7813   -3.5769 O   0  0  0  0  0  0  0  0  0  0  0  0
  -16.2749    0.1524   -1.4766 O   0  0  0  0  0  0  0  0  0  0  0  0
  -18.2428    2.8677   -0.0000 O   0  0  0  0  0  0  0  0  0  0  0  0
  -16.3686    2.2897    2.1020 O   0  0  0  0  0  0  0  0  0  0  0  0
  -20.1109    3.5715   -0.5467 H   0  0  0  0  0  0  0  0  0  0  0  0
  -18.8039    3.1514   -2.6461 H   0  0  0  0  0  0  0  0  0  0  0  0
  -18.8979    0.1815   -1.8122 H   0  0  0  0  0  0  0  0  0  0  0  0
  -16.5409    2.1631   -1.9426 H   0  0  0  0  0  0  0  0  0  0  0  0
  -17.8803    0.8968    0.5237 H   0  0  0  0  0  0  0  0  0  0  0  0
  -15.3847    1.2113    0.6833 H   0  0  0  0  0  0  0  0  0  0  0  0
  -15.6209    2.9437    0.3120 H   0  0  0  0  0  0  0  0  0  0  0  0
  -20.3600    1.9209    0.9035 H   0  0  0  0  0  0  0  0  0  0  0  0
  -21.0447    1.5170   -2.1077 H   0  0  0  0  0  0  0  0  0  0  0  0
  -18.9541    0.9427   -4.0518 H   0  0  0  0  0  0  0  0  0  0  0  0
  -15.5311    2.5802    2.5029 H   0  0  0  0  0  0  0  0  0  0  0  0
  1  2  1  0
  1 10  1  0
  1 12  1  6
  2  3  1  0
  2  7  1  0
  2 13  1  6
  3  4  1  0
  3  8  1  0
  3 14  1  1
  4  5  1  0
  4  9  1  0
  4 15  1  6
  5  6  1  0
  5 10  1  0
  5 16  1  1
  6 11  1  0
  6 17  1  0
  6 18  1  0
  7 19  1  0
  8 20  1  0
  9 21  1  0
 11 22  1  0
 23 24  1  0
 23 32  1  0
 23 34  1  6
 24 25  1  0
 24 29  1  0
 24 35  1  6
 25 26  1  0
 25 30  1  0
 25 36  1  1
 26 27  1  0
 26 31  1  0
 26 37  1  6
 27 28  1  0
 27 32  1  0
 27 38  1  1
 28 33  1  0
 28 39  1  0
 28 40  1  0
 29 41  1  0
 30 42  1  0
 33 43  1  0
 44 45  1  0
 44 53  1  0
 44 55  1  6
 45 46  1  0
 45 50  1  0
 45 56  1  6
 46 47  1  0
 46 51  1  0
 46 57  1  1
 47 48  1  0
 47 52  1  0
 47 58  1  6
 48 49  1  0
 48 53  1  0
 48 59  1  1
 49 54  1  0
 49 60  1  0
 49 61  1  0
 50 62  1  0
 51 63  1  0
 54 64  1  0
 65 66  1  0
 65 74  1  0
 65 76  1  1
 66 67  1  0
 66 71  1  0
 66 77  1  1
 67 68  1  0
 67 72  1  0
 67 78  1  6
 68 69  1  0
 68 73  1  0
 68 79  1  1
 69 70  1  0
 69 74  1  0
 69 80  1  6
 70 75  1  0
 70 81  1  0
 70 82  1  0
 71 83  1  0
 72 84  1  0
 75 85  1  0
 86 87  1  0
 86 95  1  0
 86 97  1  1
 87 88  1  0
 87 92  1  0
 87 98  1  1
 88 89  1  0
 88 93  1  0
 88 99  1  6
 89 90  1  0
 89 94  1  0
 89100  1  1
 90 91  1  0
 90 95  1  0
 90101  1  6
 91 96  1  0
 91102  1  0
 91103  1  0
 92104  1  0
 93105  1  0
 96106  1  0
107108  1  0
107116  1  0
107118  1  1
108109  1  0
108113  1  0
108119  1  1
109110  1  0
109114  1  0
109120  1  6
110111  1  0
110115  1  0
110121  1  1
111112  1  0
111116  1  0
111122  1  6
112117  1  0
112123  1  0
112124  1  0
113125  1  0
114126  1  0
117127  1  0
128129  1  0
128137  1  0
128139  1  1
129130  1  0
129134  1  0
129140  1  1
130131  1  0
130135  1  0
130141  1  6
131132  1  0
131136  1  0
131142  1  1
132133  1  0
132137  1  0
132143  1  6
133138  1  0
133144  1  0
133145  1  0
134146  1  0
135147  1  0
138148  1  0
149150  1  0
149158  1  0
149160  1  6
150151  1  0
150155  1  0
150161  1  6
151152  1  0
151156  1  0
151162  1  1
152153  1  0
152157  1  0
152163  1  6
153154  1  0
153158  1  0
153164  1  1
154159  1  0
154165  1  0
154166  1  0
155167  1  0
156168  1  0
159169  1  0
170171  1  0
170179  1  0
170181  1  6
171172  1  0
171176  1  0
171182  1  6
172173  1  0
172177  1  0
172183  1  1
173174  1  0
173178  1  0
173184  1  6
174175  1  0
174179  1  0
174185  1  1
175180  1  0
175186  1  0
175187  1  0
176188  1  0
177189  1  0
180190  1  0
191192  1  0
191197  1  0
191201  1  0
191203  1  6
192193  1  0
192198  1  0
192204  1  6
193194  1  0
193199  1  0
193205  1  1
194195  1  0
194200  1  0
194206  1  6
195196  1  0
195201  1  0
195207  1  1
196202  1  0
196208  1  0
196209  1  0
197210  1  0
198211  1  0
199212  1  0
202213  1  0
  1 31  1  0
 23 52  1  0
 44 73  1  0
 65 94  1  0
 86115  1  0
107136  1  0
128157  1  0
149178  1  0
170200  1  0
M  END

$$$$
