
     RDKit          3D

 20 20  0  0  0  0  0  0  0  0999 V2000
   -0.9422    0.5576    0.5995 C   0  0  1  0  0  0  0  0  0  0  0  0
    0.4341    0.5336    1.0128 O   0  0  0  0  0  0  0  0  0  0  0  0
    1.2170    0.1922   -0.1501 C   0  0  1  0  0  0  0  0  0  0  0  0
    2.4905   -0.3287    0.2361 O   0  0  0  0  0  0  0  0  0  0  0  0
    0.3679   -0.8963   -0.8526 C   0  0  2  0  0  0  0  0  0  0  0  0
    0.6609   -0.9486   -2.2499 O   0  0  0  0  0  0  0  0  0  0  0  0
   -1.0768   -0.3871   -0.6096 C   0  0  2  0  0  0  0  0  0  0  0  0
   -1.5575    0.3199   -1.7545 O   0  0  0  0  0  0  0  0  0  0  0  0
   -1.8361    0.0739    1.7412 C   0  0  0  0  0  0  0  0  0  0  0  0
   -1.7001    0.9510    2.8601 O   0  0  0  0  0  0  0  0  0  0  0  0
   -1.2237    1.5705    0.3115 H   0  0  0  0  0  0  0  0  0  0  0  0
    1.3400    1.0604   -0.7982 H   0  0  0  0  0  0  0  0  0  0  0  0
    2.9426    0.3702    0.7265 H   0  0  0  0  0  0  0  0  0  0  0  0
    0.5213   -1.8690   -0.3879 H   0  0  0  0  0  0  0  0  0  0  0  0
    1.5959   -1.1806   -2.3307 H   0  0  0  0  0  0  0  0  0  0  0  0
   -1.7387   -1.2189   -0.3710 H   0  0  0  0  0  0  0  0  0  0  0  0
   -1.5631   -0.3086   -2.4890 H   0  0  0  0  0  0  0  0  0  0  0  0
   -1.5412   -0.9345    2.0324 H   0  0  0  0  0  0  0  0  0  0  0  0
   -2.8759    0.0660    1.4108 H   0  0  0  0  0  0  0  0  0  0  0  0
   -2.2791    0.6115    3.5546 H   0  0  0  0  0  0  0  0  0  0  0  0
  1  2  1  0
  1  7  1  0
  1  9  1  0
  1 11  1  6
  2  3  1  0
  3  4  1  0
  3  5  1  0
  3 12  1  6
  4 13  1  0
  5  6  1  0
  5  7  1  0
  5 14  1  1
  6 15  1  0
  7  8  1  0
  7 16  1  1
  8 17  1  0
  9 10  1  0
  9 18  1  0
  9 19  1  0
 10 20  1  0
M  END

$$$$
