
     RDKit          3D

 24 24  0  0  0  0  0  0  0  0999 V2000
    0.6849   -0.9676   -0.8420 C   0  0  2  0  0  0  0  0  0  0  0  0
   -0.7620   -0.5519   -1.1229 C   0  0  2  0  0  0  0  0  0  0  0  0
   -1.4325   -0.1553    0.1962 C   0  0  1  0  0  0  0  0  0  0  0  0
   -0.6231    0.9652    0.8545 C   0  0  1  0  0  0  0  0  0  0  0  0
   -1.2526    1.3259    2.2020 C   0  0  0  0  0  0  0  0  0  0  0  0
    1.4129    0.1852   -0.1447 C   0  0  2  0  0  0  0  0  0  0  0  0
    2.7474   -0.2151    0.1702 O   0  0  0  0  0  0  0  0  0  0  0  0
    1.3424   -1.2702   -2.0747 O   0  0  0  0  0  0  0  0  0  0  0  0
   -1.4698   -1.6470   -1.7076 O   0  0  0  0  0  0  0  0  0  0  0  0
   -2.7611    0.3032   -0.0616 O   0  0  0  0  0  0  0  0  0  0  0  0
    0.7199    0.5244    1.0590 O   0  0  0  0  0  0  0  0  0  0  0  0
   -0.5686    2.4485    2.7612 O   0  0  0  0  0  0  0  0  0  0  0  0
    0.6940   -1.8469   -0.1982 H   0  0  0  0  0  0  0  0  0  0  0  0
   -0.7719    0.2969   -1.8060 H   0  0  0  0  0  0  0  0  0  0  0  0
   -1.4664   -1.0182    0.8615 H   0  0  0  0  0  0  0  0  0  0  0  0
   -0.6237    1.8420    0.2060 H   0  0  0  0  0  0  0  0  0  0  0  0
   -2.3037    1.5761    2.0568 H   0  0  0  0  0  0  0  0  0  0  0  0
   -1.1718    0.4759    2.8794 H   0  0  0  0  0  0  0  0  0  0  0  0
    1.4392    1.0517   -0.8057 H   0  0  0  0  0  0  0  0  0  0  0  0
    3.2685    0.4671    0.6152 H   0  0  0  0  0  0  0  0  0  0  0  0
    2.2647   -1.5415   -1.9722 H   0  0  0  0  0  0  0  0  0  0  0  0
   -1.0947   -1.9551   -2.5440 H   0  0  0  0  0  0  0  0  0  0  0  0
   -3.3295   -0.3558   -0.4831 H   0  0  0  0  0  0  0  0  0  0  0  0
   -0.9150    2.7337    3.6178 H   0  0  0  0  0  0  0  0  0  0  0  0
  1  2  1  0
  1  6  1  0
  1  8  1  0
  1 13  1  1
  2  3  1  0
  2  9  1  0
  2 14  1  6
  3  4  1  0
  3 10  1  0
  3 15  1  1
  4  5  1  0
  4 11  1  0
  4 16  1  6
  5 12  1  0
  5 17  1  0
  5 18  1  0
  6  7  1  0
  6 11  1  0
  6 19  1  6
  7 20  1  0
  8 21  1  0
  9 22  1  0
 10 23  1  0
 12 24  1  0
M  END

$$$$
