
     RDKit          3D

 45 46  0  0  0  0  0  0  0  0999 V2000
    0.6856   -0.9673   -0.8425 C   0  0  2  0  0  0  0  0  0  0  0  0
   -0.7621   -0.5521   -1.1227 C   0  0  2  0  0  0  0  0  0  0  0  0
   -1.4329   -0.1550    0.1964 C   0  0  1  0  0  0  0  0  0  0  0  0
   -0.6230    0.9650    0.8542 C   0  0  1  0  0  0  0  0  0  0  0  0
   -1.2526    1.3262    2.2012 C   0  0  0  0  0  0  0  0  0  0  0  0
    1.4123    0.1847   -0.1446 C   0  0  2  0  0  0  0  0  0  0  0  0
    2.7478   -0.2150    0.1711 O   0  0  0  0  0  0  0  0  0  0  0  0
    1.3420   -1.2706   -2.0753 O   0  0  0  0  0  0  0  0  0  0  0  0
   -1.4686   -1.6472   -1.7091 O   0  0  0  0  0  0  0  0  0  0  0  0
   -2.7606    0.3025   -0.0620 O   0  0  0  0  0  0  0  0  0  0  0  0
    0.7200    0.5247    1.0592 O   0  0  0  0  0  0  0  0  0  0  0  0
   -0.5689    2.4497    2.7611 O   0  0  0  0  0  0  0  0  0  0  0  0
   -5.1396   -0.1110   -0.1922 C   0  0  2  0  0  0  0  0  0  0  0  0
   -6.1870   -1.2279   -0.2151 C   0  0  2  0  0  0  0  0  0  0  0  0
   -5.8496   -2.2075   -1.3438 C   0  0  1  0  0  0  0  0  0  0  0  0
   -4.4312   -2.7450   -1.1345 C   0  0  1  0  0  0  0  0  0  0  0  0
   -4.0638   -3.6773   -2.2904 C   0  0  0  0  0  0  0  0  0  0  0  0
   -3.7494   -0.7292   -0.0275 C   0  0  1  0  0  0  0  0  0  0  0  0
   -5.4042    0.7691    0.9026 O   0  0  0  0  0  0  0  0  0  0  0  0
   -7.4814   -0.6657   -0.4421 O   0  0  0  0  0  0  0  0  0  0  0  0
   -6.7787   -3.2927   -1.3288 O   0  0  0  0  0  0  0  0  0  0  0  0
   -3.5103   -1.6527   -1.0923 O   0  0  0  0  0  0  0  0  0  0  0  0
   -2.7880   -4.2692   -2.0369 O   0  0  0  0  0  0  0  0  0  0  0  0
    0.6943   -1.8473   -0.1982 H   0  0  0  0  0  0  0  0  0  0  0  0
   -0.7726    0.2965   -1.8069 H   0  0  0  0  0  0  0  0  0  0  0  0
   -1.4663   -1.0183    0.8620 H   0  0  0  0  0  0  0  0  0  0  0  0
   -0.6236    1.8426    0.2060 H   0  0  0  0  0  0  0  0  0  0  0  0
   -1.1717    0.4768    2.8787 H   0  0  0  0  0  0  0  0  0  0  0  0
   -2.3039    1.5767    2.0560 H   0  0  0  0  0  0  0  0  0  0  0  0
    1.4395    1.0510   -0.8059 H   0  0  0  0  0  0  0  0  0  0  0  0
    3.2685    0.4672    0.6153 H   0  0  0  0  0  0  0  0  0  0  0  0
    2.2661   -1.5368   -1.9723 H   0  0  0  0  0  0  0  0  0  0  0  0
   -1.0934   -1.9543   -2.5454 H   0  0  0  0  0  0  0  0  0  0  0  0
   -0.9155    2.7340    3.6176 H   0  0  0  0  0  0  0  0  0  0  0  0
   -5.1809    0.4480   -1.1267 H   0  0  0  0  0  0  0  0  0  0  0  0
   -6.1806   -1.7530    0.7399 H   0  0  0  0  0  0  0  0  0  0  0  0
   -5.9060   -1.6913   -2.3018 H   0  0  0  0  0  0  0  0  0  0  0  0
   -4.3854   -3.2952   -0.1945 H   0  0  0  0  0  0  0  0  0  0  0  0
   -4.0220   -3.1074   -3.2179 H   0  0  0  0  0  0  0  0  0  0  0  0
   -4.8169   -4.4609   -2.3785 H   0  0  0  0  0  0  0  0  0  0  0  0
   -3.6949   -1.2533    0.9268 H   0  0  0  0  0  0  0  0  0  0  0  0
   -4.7746    1.4987    0.9803 H   0  0  0  0  0  0  0  0  0  0  0  0
   -7.7571   -0.0293    0.2322 H   0  0  0  0  0  0  0  0  0  0  0  0
   -7.6991   -3.0237   -1.4558 H   0  0  0  0  0  0  0  0  0  0  0  0
   -2.4902   -4.8746   -2.7305 H   0  0  0  0  0  0  0  0  0  0  0  0
 21 15  1  0
 17 23  1  0
 17 16  1  0
 15 16  1  0
 15 14  1  0
 16 22  1  0
 14 20  1  0
 14 13  1  0
 22 18  1  0
 18 13  1  0
 18 10  1  0
 13 19  1  0
  9  2  1  0
 12  5  1  0
 10  3  1  0
  3  2  1  0
  3  4  1  0
  2  1  1  0
  1  8  1  0
  1  6  1  0
  5  4  1  0
  4 11  1  0
 11  6  1  0
  6  7  1  0
 18 41  1  1
 13 35  1  6
 14 36  1  1
 15 37  1  6
 16 38  1  1
 17 40  1  0
 17 39  1  0
 19 42  1  0
 20 43  1  0
 21 44  1  0
 23 45  1  0
  6 30  1  6
  1 24  1  1
  2 25  1  6
  3 26  1  1
  4 27  1  6
  5 29  1  0
  5 28  1  0
  7 31  1  0
  8 32  1  0
  9 33  1  0
 12 34  1  0
M  END

$$$$
