
     RDKit          3D

171178  0  0  0  0  0  0  0  0999 V2000
   17.0150    1.7060    0.2593 C   0  0  2  0  0  0  0  0  0  0  0  0
   18.2525    1.3382   -0.5643 C   0  0  2  0  0  0  0  0  0  0  0  0
   18.5826   -0.1403   -0.3363 C   0  0  1  0  0  0  0  0  0  0  0  0
   17.3642   -0.9903   -0.7062 C   0  0  1  0  0  0  0  0  0  0  0  0
   17.6651   -2.4641   -0.4242 C   0  0  0  0  0  0  0  0  0  0  0  0
   15.8567    0.7851   -0.1349 C   0  0  1  0  0  0  0  0  0  0  0  0
   16.6543    3.0644   -0.0019 O   0  0  0  0  0  0  0  0  0  0  0  0
   19.3589    2.1432   -0.1520 O   0  0  0  0  0  0  0  0  0  0  0  0
   19.6924   -0.5143   -1.1549 O   0  0  0  0  0  0  0  0  0  0  0  0
   16.2412   -0.5759    0.0729 O   0  0  0  0  0  0  0  0  0  0  0  0
   16.5745   -3.2675   -0.8781 O   0  0  0  0  0  0  0  0  0  0  0  0
   17.2341    1.6338    1.3318 H   0  0  0  0  0  0  0  0  0  0  0  0
   18.1009    1.5499   -1.6297 H   0  0  0  0  0  0  0  0  0  0  0  0
   18.8747   -0.2984    0.7095 H   0  0  0  0  0  0  0  0  0  0  0  0
   17.1119   -0.8858   -1.7697 H   0  0  0  0  0  0  0  0  0  0  0  0
   18.5666   -2.8070   -0.9398 H   0  0  0  0  0  0  0  0  0  0  0  0
   17.7742   -2.6343    0.6525 H   0  0  0  0  0  0  0  0  0  0  0  0
   15.5767    0.9415   -1.1848 H   0  0  0  0  0  0  0  0  0  0  0  0
   15.8179    3.2099    0.4837 H   0  0  0  0  0  0  0  0  0  0  0  0
   19.0144    3.0594   -0.1277 H   0  0  0  0  0  0  0  0  0  0  0  0
   20.3584    0.1903   -1.0179 H   0  0  0  0  0  0  0  0  0  0  0  0
   16.6969   -4.1495   -0.4894 H   0  0  0  0  0  0  0  0  0  0  0  0
   12.0278   -1.4001    1.4123 C   0  0  2  0  0  0  0  0  0  0  0  0
   13.2664   -0.5432    1.6895 C   0  0  2  0  0  0  0  0  0  0  0  0
   13.6258    0.2393    0.4225 C   0  0  1  0  0  0  0  0  0  0  0  0
   12.4212    1.0806   -0.0075 C   0  0  1  0  0  0  0  0  0  0  0  0
   12.7517    1.8192   -1.3065 C   0  0  0  0  0  0  0  0  0  0  0  0
   10.8844   -0.4948    0.9452 C   0  0  1  0  0  0  0  0  0  0  0  0
   11.6398   -2.0793    2.6088 O   0  0  0  0  0  0  0  0  0  0  0  0
   14.3601   -1.3868    2.0560 O   0  0  0  0  0  0  0  0  0  0  0  0
   14.7369    1.0974    0.6895 O   0  0  0  0  0  0  0  0  0  0  0  0
   11.2960    0.2267   -0.2184 O   0  0  0  0  0  0  0  0  0  0  0  0
   11.6735    2.6932   -1.6443 O   0  0  0  0  0  0  0  0  0  0  0  0
   12.2563   -2.1713    0.6663 H   0  0  0  0  0  0  0  0  0  0  0  0
   13.1035    0.1320    2.5383 H   0  0  0  0  0  0  0  0  0  0  0  0
   13.8577   -0.4829   -0.3742 H   0  0  0  0  0  0  0  0  0  0  0  0
   12.1595    1.8239    0.7571 H   0  0  0  0  0  0  0  0  0  0  0  0
   13.6446    2.4421   -1.2093 H   0  0  0  0  0  0  0  0  0  0  0  0
   12.8891    1.1242   -2.1415 H   0  0  0  0  0  0  0  0  0  0  0  0
   10.5946    0.2052    1.7396 H   0  0  0  0  0  0  0  0  0  0  0  0
   10.8266   -2.5705    2.3785 H   0  0  0  0  0  0  0  0  0  0  0  0
   14.0056   -2.0030    2.7248 H   0  0  0  0  0  0  0  0  0  0  0  0
   10.8930    2.1108   -1.7329 H   0  0  0  0  0  0  0  0  0  0  0  0
    7.1082   -0.2293   -1.7933 C   0  0  2  0  0  0  0  0  0  0  0  0
    8.3322   -1.0046   -1.2974 C   0  0  2  0  0  0  0  0  0  0  0  0
    8.6681   -0.5497    0.1263 C   0  0  1  0  0  0  0  0  0  0  0  0
    7.4450   -0.7593    1.0227 C   0  0  1  0  0  0  0  0  0  0  0  0
    7.7525   -0.2514    2.4334 C   0  0  0  0  0  0  0  0  0  0  0  0
    5.9447   -0.4525   -0.8229 C   0  0  1  0  0  0  0  0  0  0  0  0
    6.7413   -0.6973   -3.0932 O   0  0  0  0  0  0  0  0  0  0  0  0
    9.4441   -0.7443   -2.1565 O   0  0  0  0  0  0  0  0  0  0  0  0
    9.7646   -1.3170    0.6273 O   0  0  0  0  0  0  0  0  0  0  0  0
    6.3346   -0.0373    0.4883 O   0  0  0  0  0  0  0  0  0  0  0  0
    6.6556   -0.5533    3.2973 O   0  0  0  0  0  0  0  0  0  0  0  0
    7.3459    0.8370   -1.8926 H   0  0  0  0  0  0  0  0  0  0  0  0
    8.1627   -2.0875   -1.3353 H   0  0  0  0  0  0  0  0  0  0  0  0
    8.9081    0.5234    0.0973 H   0  0  0  0  0  0  0  0  0  0  0  0
    7.1745   -1.8215    1.0878 H   0  0  0  0  0  0  0  0  0  0  0  0
    8.6340   -0.7356    2.8612 H   0  0  0  0  0  0  0  0  0  0  0  0
    7.8974    0.8339    2.4482 H   0  0  0  0  0  0  0  0  0  0  0  0
    5.6469   -1.5091   -0.8107 H   0  0  0  0  0  0  0  0  0  0  0  0
    5.9311   -0.2049   -3.3322 H   0  0  0  0  0  0  0  0  0  0  0  0
    9.1236   -0.9291   -3.0609 H   0  0  0  0  0  0  0  0  0  0  0  0
    5.8849   -0.1015    2.9001 H   0  0  0  0  0  0  0  0  0  0  0  0
    2.1454    1.4868    1.0834 C   0  0  2  0  0  0  0  0  0  0  0  0
    3.3873    1.6033    0.1949 C   0  0  2  0  0  0  0  0  0  0  0  0
    3.7243    0.2221   -0.3755 C   0  0  1  0  0  0  0  0  0  0  0  0
    2.5115   -0.3160   -1.1392 C   0  0  1  0  0  0  0  0  0  0  0  0
    2.8191   -1.7214   -1.6613 C   0  0  0  0  0  0  0  0  0  0  0  0
    0.9931    0.9008    0.2625 C   0  0  1  0  0  0  0  0  0  0  0  0
    1.7785    2.7825    1.5630 O   0  0  0  0  0  0  0  0  0  0  0  0
    4.4881    2.0809    0.9708 O   0  0  0  0  0  0  0  0  0  0  0  0
    4.8384    0.3304   -1.2638 O   0  0  0  0  0  0  0  0  0  0  0  0
    1.3840   -0.3694   -0.2641 O   0  0  0  0  0  0  0  0  0  0  0  0
    1.7340   -2.1758   -2.4718 O   0  0  0  0  0  0  0  0  0  0  0  0
    2.3622    0.8695    1.9640 H   0  0  0  0  0  0  0  0  0  0  0  0
    3.2380    2.3356   -0.6079 H   0  0  0  0  0  0  0  0  0  0  0  0
    3.9437   -0.4533    0.4646 H   0  0  0  0  0  0  0  0  0  0  0  0
    2.2615    0.3249   -1.9951 H   0  0  0  0  0  0  0  0  0  0  0  0
    3.7124   -1.7395   -2.2908 H   0  0  0  0  0  0  0  0  0  0  0  0
    2.9434   -2.4373   -0.8422 H   0  0  0  0  0  0  0  0  0  0  0  0
    0.7156    1.5786   -0.5553 H   0  0  0  0  0  0  0  0  0  0  0  0
    0.9562    2.6514    2.0756 H   0  0  0  0  0  0  0  0  0  0  0  0
    4.1614    2.8874    1.4158 H   0  0  0  0  0  0  0  0  0  0  0  0
    0.9517   -2.1600   -1.8856 H   0  0  0  0  0  0  0  0  0  0  0  0
   -2.8290   -1.7812    0.4314 C   0  0  2  0  0  0  0  0  0  0  0  0
   -1.5957   -1.1889    1.1194 C   0  0  2  0  0  0  0  0  0  0  0  0
   -1.2366    0.1385    0.4442 C   0  0  1  0  0  0  0  0  0  0  0  0
   -2.4442    1.0773    0.5069 C   0  0  1  0  0  0  0  0  0  0  0  0
   -2.1138    2.3837   -0.2186 C   0  0  0  0  0  0  0  0  0  0  0  0
   -3.9757   -0.7682    0.4958 C   0  0  1  0  0  0  0  0  0  0  0  0
   -3.2170   -2.9837    1.0997 O   0  0  0  0  0  0  0  0  0  0  0  0
   -0.4987   -2.0970    1.0006 O   0  0  0  0  0  0  0  0  0  0  0  0
   -0.1308    0.7367    1.1234 O   0  0  0  0  0  0  0  0  0  0  0  0
   -3.5644    0.4535   -0.1223 O   0  0  0  0  0  0  0  0  0  0  0  0
   -3.1955    3.3030   -0.0595 O   0  0  0  0  0  0  0  0  0  0  0  0
   -2.5946   -2.0530   -0.6053 H   0  0  0  0  0  0  0  0  0  0  0  0
   -1.7642   -1.0513    2.1944 H   0  0  0  0  0  0  0  0  0  0  0  0
   -0.9986   -0.0648   -0.6104 H   0  0  0  0  0  0  0  0  0  0  0  0
   -2.7121    1.3152    1.5448 H   0  0  0  0  0  0  0  0  0  0  0  0
   -1.2245    2.8683    0.1926 H   0  0  0  0  0  0  0  0  0  0  0  0
   -1.9701    2.2233   -1.2923 H   0  0  0  0  0  0  0  0  0  0  0  0
   -4.2717   -0.5830    1.5365 H   0  0  0  0  0  0  0  0  0  0  0  0
   -4.0326   -3.2839    0.6516 H   0  0  0  0  0  0  0  0  0  0  0  0
   -0.8380   -2.9566    1.3186 H   0  0  0  0  0  0  0  0  0  0  0  0
   -3.9727    2.8542   -0.4477 H   0  0  0  0  0  0  0  0  0  0  0  0
   -7.7451    0.8687   -1.7271 C   0  0  2  0  0  0  0  0  0  0  0  0
   -6.5186   -0.0477   -1.6991 C   0  0  2  0  0  0  0  0  0  0  0  0
   -6.1892   -0.3967   -0.2442 C   0  0  1  0  0  0  0  0  0  0  0  0
   -7.4139   -1.0445    0.4070 C   0  0  1  0  0  0  0  0  0  0  0  0
   -7.1132   -1.3414    1.8780 C   0  0  0  0  0  0  0  0  0  0  0  0
   -8.9103    0.1710   -1.0194 C   0  0  1  0  0  0  0  0  0  0  0  0
   -8.1058    1.1421   -3.0830 O   0  0  0  0  0  0  0  0  0  0  0  0
   -5.4055    0.6237   -2.2926 O   0  0  0  0  0  0  0  0  0  0  0  0
   -5.0903   -1.3094   -0.2084 O   0  0  0  0  0  0  0  0  0  0  0  0
   -8.5265   -0.1533    0.3190 O   0  0  0  0  0  0  0  0  0  0  0  0
   -8.2110   -2.0510    2.4541 O   0  0  0  0  0  0  0  0  0  0  0  0
   -7.5128    1.8326   -1.2575 H   0  0  0  0  0  0  0  0  0  0  0  0
   -6.6823   -0.9543   -2.2944 H   0  0  0  0  0  0  0  0  0  0  0  0
   -5.9548    0.5364    0.2891 H   0  0  0  0  0  0  0  0  0  0  0  0
   -7.6791   -1.9871   -0.0899 H   0  0  0  0  0  0  0  0  0  0  0  0
   -6.2302   -1.9745    1.9976 H   0  0  0  0  0  0  0  0  0  0  0  0
   -6.9746   -0.4208    2.4544 H   0  0  0  0  0  0  0  0  0  0  0  0
   -9.2028   -0.7394   -1.5586 H   0  0  0  0  0  0  0  0  0  0  0  0
   -8.9203    1.6810   -3.0370 H   0  0  0  0  0  0  0  0  0  0  0  0
   -5.7254    0.9381   -3.1610 H   0  0  0  0  0  0  0  0  0  0  0  0
   -8.9850   -1.4650    2.3379 H   0  0  0  0  0  0  0  0  0  0  0  0
  -12.7252    0.8287    1.5967 C   0  0  2  0  0  0  0  0  0  0  0  0
  -11.4813    1.3929    0.9040 C   0  0  2  0  0  0  0  0  0  0  0  0
  -11.1355    0.5091   -0.2985 C   0  0  1  0  0  0  0  0  0  0  0  0
  -12.3433    0.4419   -1.2368 C   0  0  1  0  0  0  0  0  0  0  0  0
  -12.0268   -0.4877   -2.4108 C   0  0  0  0  0  0  0  0  0  0  0  0
  -13.8721    0.7503    0.5849 C   0  0  1  0  0  0  0  0  0  0  0  0
  -13.1002    1.6863    2.6770 O   0  0  0  0  0  0  0  0  0  0  0  0
  -10.3853    1.4017    1.8209 O   0  0  0  0  0  0  0  0  0  0  0  0
  -10.0193    1.0658   -0.9958 O   0  0  0  0  0  0  0  0  0  0  0  0
  -13.4730   -0.0611   -0.5224 O   0  0  0  0  0  0  0  0  0  0  0  0
  -13.1071   -0.4587   -3.3450 O   0  0  0  0  0  0  0  0  0  0  0  0
  -12.5069   -0.1554    2.0298 H   0  0  0  0  0  0  0  0  0  0  0  0
  -11.6321    2.4349    0.5969 H   0  0  0  0  0  0  0  0  0  0  0  0
  -10.9151   -0.5035    0.0705 H   0  0  0  0  0  0  0  0  0  0  0  0
  -12.5939    1.4330   -1.6374 H   0  0  0  0  0  0  0  0  0  0  0  0
  -11.1316   -0.1737   -2.9535 H   0  0  0  0  0  0  0  0  0  0  0  0
  -11.9009   -1.5244   -2.0815 H   0  0  0  0  0  0  0  0  0  0  0  0
  -14.1509    1.7531    0.2359 H   0  0  0  0  0  0  0  0  0  0  0  0
  -13.9014    1.2817    3.0654 H   0  0  0  0  0  0  0  0  0  0  0  0
  -10.7171    1.8562    2.6198 H   0  0  0  0  0  0  0  0  0  0  0  0
  -13.8900   -0.7589   -2.8419 H   0  0  0  0  0  0  0  0  0  0  0  0
  -17.6806   -1.6411   -0.6823 C   0  0  2  0  0  0  0  0  0  0  0  0
  -16.4524   -1.4882    0.2196 C   0  0  2  0  0  0  0  0  0  0  0  0
  -16.0983   -0.0021    0.3330 C   0  0  1  0  0  0  0  0  0  0  0  0
  -17.3110    0.7644    0.8675 C   0  0  1  0  0  0  0  0  0  0  0  0
  -16.9851    2.2586    0.9268 C   0  0  0  0  0  0  0  0  0  0  0  0
  -18.8328   -0.8119   -0.1075 C   0  0  2  0  0  0  0  0  0  0  0  0
  -19.9650   -0.9055   -0.9734 O   0  0  0  0  0  0  0  0  0  0  0  0
  -18.0644   -3.0170   -0.7369 O   0  0  0  0  0  0  0  0  0  0  0  0
  -15.3505   -2.1996   -0.3474 O   0  0  0  0  0  0  0  0  0  0  0  0
  -14.9976    0.1601    1.2298 O   0  0  0  0  0  0  0  0  0  0  0  0
  -18.4262    0.5543    0.0000 O   0  0  0  0  0  0  0  0  0  0  0  0
  -18.0721    2.9587    1.5343 O   0  0  0  0  0  0  0  0  0  0  0  0
  -17.4440   -1.3351   -1.7087 H   0  0  0  0  0  0  0  0  0  0  0  0
  -16.6251   -1.9291    1.2090 H   0  0  0  0  0  0  0  0  0  0  0  0
  -15.8561    0.3718   -0.6728 H   0  0  0  0  0  0  0  0  0  0  0  0
  -17.5828    0.4284    1.8769 H   0  0  0  0  0  0  0  0  0  0  0  0
  -16.0947    2.4627    1.5273 H   0  0  0  0  0  0  0  0  0  0  0  0
  -16.8504    2.6667   -0.0805 H   0  0  0  0  0  0  0  0  0  0  0  0
  -19.1449   -1.1897    0.8738 H   0  0  0  0  0  0  0  0  0  0  0  0
  -20.6255   -0.3180   -0.5659 H   0  0  0  0  0  0  0  0  0  0  0  0
  -18.9158   -3.0264   -1.2206 H   0  0  0  0  0  0  0  0  0  0  0  0
  -15.6924   -3.0962   -0.5349 H   0  0  0  0  0  0  0  0  0  0  0  0
  -17.9078    3.9094    1.4118 H   0  0  0  0  0  0  0  0  0  0  0  0
  1  2  1  0
  1  6  1  0
  1  7  1  0
  1 12  1  1
  2  3  1  0
  2  8  1  0
  2 13  1  6
  3  4  1  0
  3  9  1  0
  3 14  1  1
  4  5  1  0
  4 10  1  0
  4 15  1  6
  5 11  1  0
  5 16  1  0
  5 17  1  0
  6 10  1  0
  6 18  1  6
  7 19  1  0
  8 20  1  0
  9 21  1  0
 11 22  1  0
 23 24  1  0
 23 28  1  0
 23 29  1  0
 23 34  1  6
 24 25  1  0
 24 30  1  0
 24 35  1  1
 25 26  1  0
 25 31  1  0
 25 36  1  6
 26 27  1  0
 26 32  1  0
 26 37  1  1
 27 33  1  0
 27 38  1  0
 27 39  1  0
 28 32  1  0
 28 40  1  1
 29 41  1  0
 30 42  1  0
 33 43  1  0
 44 45  1  0
 44 49  1  0
 44 50  1  0
 44 55  1  6
 45 46  1  0
 45 51  1  0
 45 56  1  1
 46 47  1  0
 46 52  1  0
 46 57  1  6
 47 48  1  0
 47 53  1  0
 47 58  1  1
 48 54  1  0
 48 59  1  0
 48 60  1  0
 49 53  1  0
 49 61  1  1
 50 62  1  0
 51 63  1  0
 54 64  1  0
 65 66  1  0
 65 70  1  0
 65 71  1  0
 65 76  1  1
 66 67  1  0
 66 72  1  0
 66 77  1  6
 67 68  1  0
 67 73  1  0
 67 78  1  1
 68 69  1  0
 68 74  1  0
 68 79  1  6
 69 75  1  0
 69 80  1  0
 69 81  1  0
 70 74  1  0
 70 82  1  6
 71 83  1  0
 72 84  1  0
 75 85  1  0
 86 87  1  0
 86 91  1  0
 86 92  1  0
 86 97  1  6
 87 88  1  0
 87 93  1  0
 87 98  1  1
 88 89  1  0
 88 94  1  0
 88 99  1  6
 89 90  1  0
 89 95  1  0
 89100  1  1
 90 96  1  0
 90101  1  0
 90102  1  0
 91 95  1  0
 91103  1  1
 92104  1  0
 93105  1  0
 96106  1  0
107108  1  0
107112  1  0
107113  1  0
107118  1  1
108109  1  0
108114  1  0
108119  1  6
109110  1  0
109115  1  0
109120  1  1
110111  1  0
110116  1  0
110121  1  6
111117  1  0
111122  1  0
111123  1  0
112116  1  0
112124  1  6
113125  1  0
114126  1  0
117127  1  0
128129  1  0
128133  1  0
128134  1  0
128139  1  1
129130  1  0
129135  1  0
129140  1  6
130131  1  0
130136  1  0
130141  1  1
131132  1  0
131137  1  0
131142  1  6
132138  1  0
132143  1  0
132144  1  0
133137  1  0
133145  1  6
134146  1  0
135147  1  0
138148  1  0
149150  1  0
149154  1  0
149156  1  0
149161  1  6
150151  1  0
150157  1  0
150162  1  1
151152  1  0
151158  1  0
151163  1  6
152153  1  0
152159  1  0
152164  1  1
153160  1  0
153165  1  0
153166  1  0
154155  1  0
154159  1  0
154167  1  1
155168  1  0
156169  1  0
157170  1  0
160171  1  0
  6 31  1  0
 28 52  1  0
 49 73  1  0
 70 94  1  0
 91115  1  0
112136  1  0
133158  1  0
M  END

$$$$
