
     RDKit          3D

 24 24  0  0  0  0  0  0  0  0999 V2000
    1.9100    1.2346   -0.7594 C   0  0  0  0  0  0  0  0  0  0  0  0
    1.2468    0.0566   -0.0443 C   0  0  1  0  0  0  0  0  0  0  0  0
    0.3428   -0.7137   -1.0242 C   0  0  2  0  0  0  0  0  0  0  0  0
   -1.0805   -0.5630   -0.4299 C   0  0  1  0  0  0  0  0  0  0  0  0
   -0.9199    0.6815    0.4788 C   0  0  1  0  0  0  0  0  0  0  0  0
   -1.9613    0.6695    1.5982 C   0  0  0  0  0  0  0  0  0  0  0  0
    2.7343    1.9496    0.1633 O   0  0  0  0  0  0  0  0  0  0  0  0
    2.2475   -0.8171    0.4817 O   0  0  0  0  0  0  0  0  0  0  0  0
    0.7220   -2.0898   -1.0811 O   0  0  0  0  0  0  0  0  0  0  0  0
   -2.0414   -0.3279   -1.4603 O   0  0  0  0  0  0  0  0  0  0  0  0
    0.4108    0.5386    1.0196 O   0  0  0  0  0  0  0  0  0  0  0  0
   -1.7597    1.8000    2.4493 O   0  0  0  0  0  0  0  0  0  0  0  0
    2.5218    0.8636   -1.5814 H   0  0  0  0  0  0  0  0  0  0  0  0
    1.1413    1.9007   -1.1510 H   0  0  0  0  0  0  0  0  0  0  0  0
    0.3868   -0.2658   -2.0175 H   0  0  0  0  0  0  0  0  0  0  0  0
   -1.3510   -1.4382    0.1587 H   0  0  0  0  0  0  0  0  0  0  0  0
   -0.9987    1.5974   -0.1070 H   0  0  0  0  0  0  0  0  0  0  0  0
   -1.8589   -0.2461    2.1806 H   0  0  0  0  0  0  0  0  0  0  0  0
   -2.9603    0.7160    1.1668 H   0  0  0  0  0  0  0  0  0  0  0  0
    3.1320    2.6814   -0.3262 H   0  0  0  0  0  0  0  0  0  0  0  0
    2.7804   -0.2939    1.0961 H   0  0  0  0  0  0  0  0  0  0  0  0
    0.1243   -2.5188   -1.7075 H   0  0  0  0  0  0  0  0  0  0  0  0
   -2.9020   -0.2440   -1.0258 H   0  0  0  0  0  0  0  0  0  0  0  0
   -2.4343    1.7543    3.1400 H   0  0  0  0  0  0  0  0  0  0  0  0
  1  2  1  0
  1  7  1  0
  1 13  1  0
  1 14  1  0
  2  3  1  0
  2  8  1  1
  2 11  1  0
  3  4  1  0
  3  9  1  0
  3 15  1  6
  4  5  1  0
  4 10  1  0
  4 16  1  1
  5  6  1  0
  5 11  1  0
  5 17  1  6
  6 12  1  0
  6 18  1  0
  6 19  1  0
  7 20  1  0
  8 21  1  0
  9 22  1  0
 10 23  1  0
 12 24  1  0
M  END

$$$$
