
     RDKit          3D

 24 24  0  0  0  0  0  0  0  0999 V2000
    1.4128    0.1848   -0.1443 C   0  0  2  0  0  0  0  0  0  0  0  0
    0.6848   -0.9673   -0.8422 C   0  0  1  0  0  0  0  0  0  0  0  0
   -0.7620   -0.5520   -1.1228 C   0  0  2  0  0  0  0  0  0  0  0  0
   -1.4324   -0.1556    0.1961 C   0  0  2  0  0  0  0  0  0  0  0  0
   -0.6237    0.9657    0.8546 C   0  0  1  0  0  0  0  0  0  0  0  0
   -1.2529    1.3261    2.2010 C   0  0  0  0  0  0  0  0  0  0  0  0
    2.7479   -0.2164    0.1708 O   0  0  0  0  0  0  0  0  0  0  0  0
    1.3424   -1.2708   -2.0743 O   0  0  0  0  0  0  0  0  0  0  0  0
   -1.4698   -1.6475   -1.7078 O   0  0  0  0  0  0  0  0  0  0  0  0
   -1.4778   -1.2860    1.0678 O   0  0  0  0  0  0  0  0  0  0  0  0
    0.7205    0.5244    1.0587 O   0  0  0  0  0  0  0  0  0  0  0  0
   -0.5682    2.4489    2.7611 O   0  0  0  0  0  0  0  0  0  0  0  0
    1.4395    1.0513   -0.8051 H   0  0  0  0  0  0  0  0  0  0  0  0
    0.6927   -1.8472   -0.1981 H   0  0  0  0  0  0  0  0  0  0  0  0
   -0.7714    0.2972   -1.8068 H   0  0  0  0  0  0  0  0  0  0  0  0
   -2.4458    0.1951   -0.0008 H   0  0  0  0  0  0  0  0  0  0  0  0
   -0.6239    1.8425    0.2065 H   0  0  0  0  0  0  0  0  0  0  0  0
   -2.3036    1.5770    2.0559 H   0  0  0  0  0  0  0  0  0  0  0  0
   -1.1722    0.4769    2.8789 H   0  0  0  0  0  0  0  0  0  0  0  0
    3.2681    0.4659    0.6159 H   0  0  0  0  0  0  0  0  0  0  0  0
    2.2664   -1.5372   -1.9728 H   0  0  0  0  0  0  0  0  0  0  0  0
   -1.0950   -1.9554   -2.5445 H   0  0  0  0  0  0  0  0  0  0  0  0
   -1.9723   -2.0379    0.7117 H   0  0  0  0  0  0  0  0  0  0  0  0
   -0.9151    2.7329    3.6178 H   0  0  0  0  0  0  0  0  0  0  0  0
  1  2  1  0
  1  7  1  0
  1 11  1  0
  1 13  1  6
  2  3  1  0
  2  8  1  0
  2 14  1  1
  3  4  1  0
  3  9  1  0
  3 15  1  6
  4  5  1  0
  4 10  1  0
  4 16  1  6
  5  6  1  0
  5 11  1  0
  5 17  1  6
  6 12  1  0
  6 18  1  0
  6 19  1  0
  7 20  1  0
  8 21  1  0
  9 22  1  0
 10 23  1  0
 12 24  1  0
M  END

$$$$
