
     RDKit          3D

 24 24  0  0  0  0  0  0  0  0999 V2000
    1.4125    0.1850   -0.1446 C   0  0  1  0  0  0  0  0  0  0  0  0
    0.6856   -0.9674   -0.8423 C   0  0  1  0  0  0  0  0  0  0  0  0
   -0.7624   -0.5521   -1.1227 C   0  0  2  0  0  0  0  0  0  0  0  0
   -1.4323   -0.1548    0.1964 C   0  0  1  0  0  0  0  0  0  0  0  0
   -0.6234    0.9650    0.8542 C   0  0  1  0  0  0  0  0  0  0  0  0
   -1.2527    1.3262    2.2007 C   0  0  0  0  0  0  0  0  0  0  0  0
    1.4474    1.3199   -1.0106 O   0  0  0  0  0  0  0  0  0  0  0  0
    1.3428   -1.2702   -2.0743 O   0  0  0  0  0  0  0  0  0  0  0  0
   -1.4692   -1.6478   -1.7073 O   0  0  0  0  0  0  0  0  0  0  0  0
   -2.7611    0.3030   -0.0623 O   0  0  0  0  0  0  0  0  0  0  0  0
    0.7200    0.5243    1.0589 O   0  0  0  0  0  0  0  0  0  0  0  0
   -0.5692    2.4492    2.7612 O   0  0  0  0  0  0  0  0  0  0  0  0
    2.4312   -0.1210    0.0959 H   0  0  0  0  0  0  0  0  0  0  0  0
    0.6938   -1.8475   -0.1981 H   0  0  0  0  0  0  0  0  0  0  0  0
   -0.7712    0.2965   -1.8068 H   0  0  0  0  0  0  0  0  0  0  0  0
   -1.4663   -1.0186    0.8618 H   0  0  0  0  0  0  0  0  0  0  0  0
   -0.6230    1.8425    0.2059 H   0  0  0  0  0  0  0  0  0  0  0  0
   -2.3031    1.5766    2.0560 H   0  0  0  0  0  0  0  0  0  0  0  0
   -1.1723    0.4768    2.8787 H   0  0  0  0  0  0  0  0  0  0  0  0
    1.8947    2.0903   -0.6330 H   0  0  0  0  0  0  0  0  0  0  0  0
    2.2668   -1.5378   -1.9725 H   0  0  0  0  0  0  0  0  0  0  0  0
   -1.0944   -1.9562   -2.5441 H   0  0  0  0  0  0  0  0  0  0  0  0
   -3.3295   -0.3565   -0.4839 H   0  0  0  0  0  0  0  0  0  0  0  0
   -0.9150    2.7334    3.6179 H   0  0  0  0  0  0  0  0  0  0  0  0
  1  2  1  0
  1  7  1  0
  1 11  1  0
  1 13  1  1
  2  3  1  0
  2  8  1  0
  2 14  1  1
  3  4  1  0
  3  9  1  0
  3 15  1  6
  4  5  1  0
  4 10  1  0
  4 16  1  1
  5  6  1  0
  5 11  1  0
  5 17  1  6
  6 12  1  0
  6 18  1  0
  6 19  1  0
  7 20  1  0
  8 21  1  0
  9 22  1  0
 10 23  1  0
 12 24  1  0
M  END

$$$$
