
     RDKit          3D

339354  0  0  0  0  0  0  0  0999 V2000
    1.8454   -6.4322    9.1533 C   0  0  2  0  0  0  0  0  0  0  0  0
    3.1138   -5.7682    8.6117 C   0  0  1  0  0  0  0  0  0  0  0  0
    3.8962   -6.7857    7.7752 C   0  0  2  0  0  0  0  0  0  0  0  0
    4.2046   -8.0119    8.6400 C   0  0  1  0  0  0  0  0  0  0  0  0
    2.8945   -8.5884    9.1808 C   0  0  1  0  0  0  0  0  0  0  0  0
    3.1982   -9.7774   10.0938 C   0  0  0  0  0  0  0  0  0  0  0  0
    2.7571   -4.6515    7.7949 O   0  0  0  0  0  0  0  0  0  0  0  0
    5.1187   -6.1970    7.3268 O   0  0  0  0  0  0  0  0  0  0  0  0
    4.8713   -8.9981    7.8494 O   0  0  0  0  0  0  0  0  0  0  0  0
    2.2023   -7.5826    9.9226 O   0  0  0  0  0  0  0  0  0  0  0  0
    1.9736  -10.3885   10.5053 O   0  0  0  0  0  0  0  0  0  0  0  0
    1.4355   -5.7357    9.8872 H   0  0  0  0  0  0  0  0  0  0  0  0
    3.7431   -5.3987    9.4301 H   0  0  0  0  0  0  0  0  0  0  0  0
    3.3461   -7.0690    6.8697 H   0  0  0  0  0  0  0  0  0  0  0  0
    4.8820   -7.7296    9.4556 H   0  0  0  0  0  0  0  0  0  0  0  0
    2.2588   -8.9427    8.3626 H   0  0  0  0  0  0  0  0  0  0  0  0
    3.7957  -10.5408    9.5871 H   0  0  0  0  0  0  0  0  0  0  0  0
    3.7205   -9.4474   10.9983 H   0  0  0  0  0  0  0  0  0  0  0  0
    1.9000   -4.3085    8.1212 H   0  0  0  0  0  0  0  0  0  0  0  0
    4.8594   -5.3244    6.9656 H   0  0  0  0  0  0  0  0  0  0  0  0
    5.5541   -8.5042    7.3505 H   0  0  0  0  0  0  0  0  0  0  0  0
    2.2098  -11.0722   11.1552 H   0  0  0  0  0  0  0  0  0  0  0  0
   -3.2631   -6.1831    8.2138 C   0  0  2  0  0  0  0  0  0  0  0  0
   -2.4283   -5.1684    8.9990 C   0  0  1  0  0  0  0  0  0  0  0  0
   -0.9761   -5.2297    8.5145 C   0  0  2  0  0  0  0  0  0  0  0  0
   -0.4555   -6.6613    8.6758 C   0  0  1  0  0  0  0  0  0  0  0  0
   -1.3668   -7.6178    7.9039 C   0  0  1  0  0  0  0  0  0  0  0  0
   -0.8882   -9.0560    8.1091 C   0  0  0  0  0  0  0  0  0  0  0  0
   -2.9481   -3.8548    8.7858 O   0  0  0  0  0  0  0  0  0  0  0  0
   -0.1745   -4.3385    9.2927 O   0  0  0  0  0  0  0  0  0  0  0  0
    0.8745   -6.7464    8.1599 O   0  0  0  0  0  0  0  0  0  0  0  0
   -2.7067   -7.4887    8.3825 O   0  0  0  0  0  0  0  0  0  0  0  0
   -1.6652   -9.9383    7.2964 O   0  0  0  0  0  0  0  0  0  0  0  0
   -4.2265   -6.2343    8.7250 H   0  0  0  0  0  0  0  0  0  0  0  0
   -2.4693   -5.3755   10.0750 H   0  0  0  0  0  0  0  0  0  0  0  0
   -0.8846   -4.8901    7.4757 H   0  0  0  0  0  0  0  0  0  0  0  0
   -0.4660   -6.9391    9.7402 H   0  0  0  0  0  0  0  0  0  0  0  0
   -1.3386   -7.4004    6.8311 H   0  0  0  0  0  0  0  0  0  0  0  0
    0.1537   -9.1839    7.8124 H   0  0  0  0  0  0  0  0  0  0  0  0
   -1.0160   -9.3654    9.1517 H   0  0  0  0  0  0  0  0  0  0  0  0
   -3.9052   -3.9431    8.5972 H   0  0  0  0  0  0  0  0  0  0  0  0
   -0.7049   -3.5153    9.3483 H   0  0  0  0  0  0  0  0  0  0  0  0
   -1.4080  -10.8408    7.5537 H   0  0  0  0  0  0  0  0  0  0  0  0
   -6.8865   -6.0393    4.4866 C   0  0  2  0  0  0  0  0  0  0  0  0
   -7.0914   -5.7315    5.9720 C   0  0  1  0  0  0  0  0  0  0  0  0
   -5.7659   -5.2542    6.5742 C   0  0  2  0  0  0  0  0  0  0  0  0
   -4.6973   -6.3274    6.3438 C   0  0  1  0  0  0  0  0  0  0  0  0
   -4.5856   -6.6123    4.8447 C   0  0  1  0  0  0  0  0  0  0  0  0
   -3.5630   -7.7256    4.6114 C   0  0  0  0  0  0  0  0  0  0  0  0
   -8.0778   -4.7080    6.1164 O   0  0  0  0  0  0  0  0  0  0  0  0
   -5.9294   -5.0352    7.9770 O   0  0  0  0  0  0  0  0  0  0  0  0
   -3.4395   -5.8621    6.8377 O   0  0  0  0  0  0  0  0  0  0  0  0
   -5.8587   -7.0218    4.3420 O   0  0  0  0  0  0  0  0  0  0  0  0
   -3.3716   -7.9115    3.2074 O   0  0  0  0  0  0  0  0  0  0  0  0
   -7.7942   -6.5511    4.1613 H   0  0  0  0  0  0  0  0  0  0  0  0
   -7.4457   -6.6181    6.5112 H   0  0  0  0  0  0  0  0  0  0  0  0
   -5.4565   -4.2907    6.1516 H   0  0  0  0  0  0  0  0  0  0  0  0
   -4.9873   -7.2531    6.8626 H   0  0  0  0  0  0  0  0  0  0  0  0
   -4.2477   -5.7221    4.3040 H   0  0  0  0  0  0  0  0  0  0  0  0
   -2.5890   -7.4788    5.0359 H   0  0  0  0  0  0  0  0  0  0  0  0
   -3.9173   -8.6747    5.0272 H   0  0  0  0  0  0  0  0  0  0  0  0
   -8.6884   -4.7779    5.3537 H   0  0  0  0  0  0  0  0  0  0  0  0
   -6.7811   -4.5549    8.0537 H   0  0  0  0  0  0  0  0  0  0  0  0
   -2.8244   -8.7104    3.1112 H   0  0  0  0  0  0  0  0  0  0  0  0
   -8.2160   -3.8788   -0.0527 C   0  0  2  0  0  0  0  0  0  0  0  0
   -9.1238   -4.6944    0.8713 C   0  0  1  0  0  0  0  0  0  0  0  0
   -8.6065   -4.5848    2.3093 C   0  0  2  0  0  0  0  0  0  0  0  0
   -7.1511   -5.0607    2.3543 C   0  0  1  0  0  0  0  0  0  0  0  0
   -6.3202   -4.2316    1.3728 C   0  0  1  0  0  0  0  0  0  0  0  0
   -4.8778   -4.7404    1.3681 C   0  0  0  0  0  0  0  0  0  0  0  0
  -10.4569   -4.1849    0.8029 O   0  0  0  0  0  0  0  0  0  0  0  0
   -9.4041   -5.4027    3.1679 O   0  0  0  0  0  0  0  0  0  0  0  0
   -6.6356   -4.8950    3.6769 O   0  0  0  0  0  0  0  0  0  0  0  0
   -6.8726   -4.3530    0.0609 O   0  0  0  0  0  0  0  0  0  0  0  0
   -4.0757   -3.8941    0.5419 O   0  0  0  0  0  0  0  0  0  0  0  0
   -8.5095   -4.1464   -1.0696 H   0  0  0  0  0  0  0  0  0  0  0  0
   -9.1502   -5.7472    0.5660 H   0  0  0  0  0  0  0  0  0  0  0  0
   -8.7003   -3.5617    2.6930 H   0  0  0  0  0  0  0  0  0  0  0  0
   -7.1006   -6.1193    2.0594 H   0  0  0  0  0  0  0  0  0  0  0  0
   -6.3066   -3.1763    1.6666 H   0  0  0  0  0  0  0  0  0  0  0  0
   -4.4367   -4.7225    2.3655 H   0  0  0  0  0  0  0  0  0  0  0  0
   -4.8225   -5.7542    0.9579 H   0  0  0  0  0  0  0  0  0  0  0  0
  -10.5838   -3.8127   -0.0941 H   0  0  0  0  0  0  0  0  0  0  0  0
  -10.3278   -5.2238    2.8906 H   0  0  0  0  0  0  0  0  0  0  0  0
   -3.2095   -4.3253    0.4517 H   0  0  0  0  0  0  0  0  0  0  0  0
   -8.5235    0.5912   -2.6922 C   0  0  2  0  0  0  0  0  0  0  0  0
   -9.1598   -0.7453   -3.0819 C   0  0  1  0  0  0  0  0  0  0  0  0
   -9.3992   -1.5762   -1.8171 C   0  0  2  0  0  0  0  0  0  0  0  0
   -8.0690   -1.7577   -1.0793 C   0  0  1  0  0  0  0  0  0  0  0  0
   -7.4750   -0.3825   -0.7678 C   0  0  1  0  0  0  0  0  0  0  0  0
   -6.1177   -0.5557   -0.0840 C   0  0  0  0  0  0  0  0  0  0  0  0
  -10.4053   -0.5077   -3.7403 O   0  0  0  0  0  0  0  0  0  0  0  0
   -9.9247   -2.8553   -2.1777 O   0  0  0  0  0  0  0  0  0  0  0  0
   -8.2926   -2.4698    0.1394 O   0  0  0  0  0  0  0  0  0  0  0  0
   -7.3063    0.3494   -1.9830 O   0  0  0  0  0  0  0  0  0  0  0  0
   -5.5625    0.7288    0.2072 O   0  0  0  0  0  0  0  0  0  0  0  0
   -8.2012    1.0512   -3.6283 H   0  0  0  0  0  0  0  0  0  0  0  0
   -8.5145   -1.3003   -3.7734 H   0  0  0  0  0  0  0  0  0  0  0  0
  -10.1515   -1.1120   -1.1681 H   0  0  0  0  0  0  0  0  0  0  0  0
   -7.3678   -2.3143   -1.7186 H   0  0  0  0  0  0  0  0  0  0  0  0
   -8.1254    0.1800   -0.0900 H   0  0  0  0  0  0  0  0  0  0  0  0
   -6.2278   -1.1050    0.8548 H   0  0  0  0  0  0  0  0  0  0  0  0
   -5.4461   -1.1065   -0.7513 H   0  0  0  0  0  0  0  0  0  0  0  0
  -10.3347    0.3510   -4.2058 H   0  0  0  0  0  0  0  0  0  0  0  0
  -10.6056   -2.6606   -2.8564 H   0  0  0  0  0  0  0  0  0  0  0  0
  -10.0076    5.5688   -2.4426 C   0  0  2  0  0  0  0  0  0  0  0  0
   -9.6443    4.7862   -3.7070 C   0  0  1  0  0  0  0  0  0  0  0  0
   -9.9026    3.2952   -3.4673 C   0  0  2  0  0  0  0  0  0  0  0  0
   -9.0961    2.8382   -2.2478 C   0  0  1  0  0  0  0  0  0  0  0  0
   -9.4801    3.6962   -1.0405 C   0  0  1  0  0  0  0  0  0  0  0  0
   -8.6358    3.2855    0.1670 C   0  0  0  0  0  0  0  0  0  0  0  0
  -10.4474    5.2410   -4.7978 O   0  0  0  0  0  0  0  0  0  0  0  0
   -9.4967    2.5489   -4.6165 O   0  0  0  0  0  0  0  0  0  0  0  0
   -9.3853    1.4662   -1.9713 O   0  0  0  0  0  0  0  0  0  0  0  0
   -9.2442    5.0728   -1.3408 O   0  0  0  0  0  0  0  0  0  0  0  0
   -9.0740    4.0036    1.3223 O   0  0  0  0  0  0  0  0  0  0  0  0
   -9.6266    6.5798   -2.5991 H   0  0  0  0  0  0  0  0  0  0  0  0
   -8.5928    4.9419   -3.9762 H   0  0  0  0  0  0  0  0  0  0  0  0
  -10.9715    3.0889   -3.3346 H   0  0  0  0  0  0  0  0  0  0  0  0
   -8.0218    2.9644   -2.4482 H   0  0  0  0  0  0  0  0  0  0  0  0
  -10.5345    3.5534   -0.7819 H   0  0  0  0  0  0  0  0  0  0  0  0
   -8.7401    2.2236    0.3932 H   0  0  0  0  0  0  0  0  0  0  0  0
   -7.5796    3.5267    0.0072 H   0  0  0  0  0  0  0  0  0  0  0  0
  -10.6698    6.1798   -4.6302 H   0  0  0  0  0  0  0  0  0  0  0  0
   -9.8531    3.0542   -5.3780 H   0  0  0  0  0  0  0  0  0  0  0  0
   -8.4583    3.7888    2.0437 H   0  0  0  0  0  0  0  0  0  0  0  0
  -13.8001    8.7916   -0.9357 C   0  0  1  0  0  0  0  0  0  0  0  0
  -12.6155    9.1357   -1.8420 C   0  0  1  0  0  0  0  0  0  0  0  0
  -12.1378    7.8634   -2.5496 C   0  0  2  0  0  0  0  0  0  0  0  0
  -11.7785    6.8109   -1.4962 C   0  0  1  0  0  0  0  0  0  0  0  0
  -12.9947    6.5575   -0.6030 C   0  0  1  0  0  0  0  0  0  0  0  0
  -12.6258    5.5516    0.4885 C   0  0  0  0  0  0  0  0  0  0  0  0
  -14.8825    8.3060   -1.7305 O   0  0  0  0  0  0  0  0  0  0  0  0
  -13.0227   10.0993   -2.8152 O   0  0  0  0  0  0  0  0  0  0  0  0
  -10.9858    8.1607   -3.3414 O   0  0  0  0  0  0  0  0  0  0  0  0
  -11.4002    5.5954   -2.1458 O   0  0  0  0  0  0  0  0  0  0  0  0
  -13.4062    7.7857   -0.0000 O   0  0  0  0  0  0  0  0  0  0  0  0
  -13.7901    5.2255    1.2505 O   0  0  0  0  0  0  0  0  0  0  0  0
  -14.1436    9.6791   -0.3943 H   0  0  0  0  0  0  0  0  0  0  0  0
  -11.7933    9.5736   -1.2644 H   0  0  0  0  0  0  0  0  0  0  0  0
  -12.8890    7.4812   -3.2510 H   0  0  0  0  0  0  0  0  0  0  0  0
  -10.9495    7.1802   -0.8745 H   0  0  0  0  0  0  0  0  0  0  0  0
  -13.8297    6.1342   -1.1762 H   0  0  0  0  0  0  0  0  0  0  0  0
  -12.2474    4.6183    0.0695 H   0  0  0  0  0  0  0  0  0  0  0  0
  -11.8862    5.9742    1.1767 H   0  0  0  0  0  0  0  0  0  0  0  0
  -15.6105    8.1821   -1.0938 H   0  0  0  0  0  0  0  0  0  0  0  0
  -13.9073    9.8127   -3.1238 H   0  0  0  0  0  0  0  0  0  0  0  0
  -11.1740    9.0288   -3.7560 H   0  0  0  0  0  0  0  0  0  0  0  0
  -13.4892    4.6663    1.9873 H   0  0  0  0  0  0  0  0  0  0  0  0
    6.9294   -2.9873  -11.7264 C   0  0  2  0  0  0  0  0  0  0  0  0
    7.2654   -4.3810  -11.1900 C   0  0  1  0  0  0  0  0  0  0  0  0
    8.6005   -4.3231  -10.4406 C   0  0  2  0  0  0  0  0  0  0  0  0
    9.6806   -3.7865  -11.3849 C   0  0  1  0  0  0  0  0  0  0  0  0
    9.2510   -2.4166  -11.9140 C   0  0  1  0  0  0  0  0  0  0  0  0
   10.2965   -1.9007  -12.9041 C   0  0  0  0  0  0  0  0  0  0  0  0
    6.2352   -4.8111  -10.2984 O   0  0  0  0  0  0  0  0  0  0  0  0
    8.9588   -5.6345  -10.0000 O   0  0  0  0  0  0  0  0  0  0  0  0
   10.9148   -3.6601  -10.6756 O   0  0  0  0  0  0  0  0  0  0  0  0
    7.9888   -2.5354  -12.5727 O   0  0  0  0  0  0  0  0  0  0  0  0
    9.9564   -0.5730  -13.3091 O   0  0  0  0  0  0  0  0  0  0  0  0
    6.0851   -3.1255  -12.4046 H   0  0  0  0  0  0  0  0  0  0  0  0
    7.3297   -5.1105  -12.0062 H   0  0  0  0  0  0  0  0  0  0  0  0
    8.5265   -3.7086   -9.5351 H   0  0  0  0  0  0  0  0  0  0  0  0
    9.8427   -4.4972  -12.2049 H   0  0  0  0  0  0  0  0  0  0  0  0
    9.1710   -1.6920  -11.0969 H   0  0  0  0  0  0  0  0  0  0  0  0
   11.2968   -1.8666  -12.4627 H   0  0  0  0  0  0  0  0  0  0  0  0
   10.3172   -2.5235  -13.8049 H   0  0  0  0  0  0  0  0  0  0  0  0
    5.4046   -4.3705  -10.5718 H   0  0  0  0  0  0  0  0  0  0  0  0
    8.1496   -5.9857   -9.5742 H   0  0  0  0  0  0  0  0  0  0  0  0
   11.0022   -4.4931  -10.1681 H   0  0  0  0  0  0  0  0  0  0  0  0
   10.5905   -0.3238  -14.0029 H   0  0  0  0  0  0  0  0  0  0  0  0
    3.5397    0.7930  -10.6036 C   0  0  2  0  0  0  0  0  0  0  0  0
    3.2425   -0.5064  -11.3561 C   0  0  1  0  0  0  0  0  0  0  0  0
    4.2484   -1.5786  -10.9248 C   0  0  2  0  0  0  0  0  0  0  0  0
    5.6680   -1.0659  -11.1862 C   0  0  1  0  0  0  0  0  0  0  0  0
    5.8710    0.2549  -10.4411 C   0  0  1  0  0  0  0  0  0  0  0  0
    7.2660    0.8036  -10.7451 C   0  0  0  0  0  0  0  0  0  0  0  0
    1.9173   -0.9436  -11.0497 O   0  0  0  0  0  0  0  0  0  0  0  0
    4.0252   -2.7735  -11.6765 O   0  0  0  0  0  0  0  0  0  0  0  0
    6.6163   -2.0286  -10.7210 O   0  0  0  0  0  0  0  0  0  0  0  0
    4.8852    1.1974  -10.8662 O   0  0  0  0  0  0  0  0  0  0  0  0
    7.5004    1.9741   -9.9594 O   0  0  0  0  0  0  0  0  0  0  0  0
    2.9304    1.5608  -11.0843 H   0  0  0  0  0  0  0  0  0  0  0  0
    3.3041   -0.3547  -12.4403 H   0  0  0  0  0  0  0  0  0  0  0  0
    4.1149   -1.8542   -9.8718 H   0  0  0  0  0  0  0  0  0  0  0  0
    5.8042   -0.8924  -12.2640 H   0  0  0  0  0  0  0  0  0  0  0  0
    5.7929    0.1066   -9.3589 H   0  0  0  0  0  0  0  0  0  0  0  0
    8.0484    0.0873  -10.4912 H   0  0  0  0  0  0  0  0  0  0  0  0
    7.3532    1.0878  -11.7991 H   0  0  0  0  0  0  0  0  0  0  0  0
    1.3874   -0.1490  -10.8326 H   0  0  0  0  0  0  0  0  0  0  0  0
    3.0516   -2.8924  -11.6660 H   0  0  0  0  0  0  0  0  0  0  0  0
    8.3445    2.3453  -10.2697 H   0  0  0  0  0  0  0  0  0  0  0  0
    1.3627    3.5300   -6.7551 C   0  0  2  0  0  0  0  0  0  0  0  0
    0.8979    3.4741   -8.2124 C   0  0  1  0  0  0  0  0  0  0  0  0
    1.3381    2.1428   -8.8300 C   0  0  2  0  0  0  0  0  0  0  0  0
    2.8584    2.0094   -8.6981 C   0  0  1  0  0  0  0  0  0  0  0  0
    3.2472    2.1226   -7.2226 C   0  0  1  0  0  0  0  0  0  0  0  0
    4.7692    2.0501   -7.0886 C   0  0  0  0  0  0  0  0  0  0  0  0
   -0.5263    3.5770   -8.2641 O   0  0  0  0  0  0  0  0  0  0  0  0
    0.9732    2.1127  -10.2114 O   0  0  0  0  0  0  0  0  0  0  0  0
    3.2718    0.7391   -9.2060 O   0  0  0  0  0  0  0  0  0  0  0  0
    2.7819    3.3690   -6.7022 O   0  0  0  0  0  0  0  0  0  0  0  0
    5.1265    2.0377   -5.7049 O   0  0  0  0  0  0  0  0  0  0  0  0
    1.1975    4.5589   -6.4297 H   0  0  0  0  0  0  0  0  0  0  0  0
    1.3162    4.3070   -8.7899 H   0  0  0  0  0  0  0  0  0  0  0  0
    0.8245    1.2940   -8.3627 H   0  0  0  0  0  0  0  0  0  0  0  0
    3.3491    2.8182   -9.2597 H   0  0  0  0  0  0  0  0  0  0  0  0
    2.8159    1.3008   -6.6407 H   0  0  0  0  0  0  0  0  0  0  0  0
    5.1728    1.1381   -7.5301 H   0  0  0  0  0  0  0  0  0  0  0  0
    5.2446    2.9240   -7.5462 H   0  0  0  0  0  0  0  0  0  0  0  0
   -0.8112    4.1007   -7.4870 H   0  0  0  0  0  0  0  0  0  0  0  0
    0.0564    2.4607  -10.2314 H   0  0  0  0  0  0  0  0  0  0  0  0
    6.0953    2.0993   -5.6593 H   0  0  0  0  0  0  0  0  0  0  0  0
   -0.8433    3.2233   -2.0561 C   0  0  2  0  0  0  0  0  0  0  0  0
   -0.8582    4.4322   -2.9949 C   0  0  1  0  0  0  0  0  0  0  0  0
   -0.7069    3.9480   -4.4407 C   0  0  2  0  0  0  0  0  0  0  0  0
    0.5840    3.1323   -4.5619 C   0  0  1  0  0  0  0  0  0  0  0  0
    0.5432    1.9746   -3.5624 C   0  0  1  0  0  0  0  0  0  0  0  0
    1.8544    1.1905   -3.6356 C   0  0  0  0  0  0  0  0  0  0  0  0
   -2.0953    5.1327   -2.8526 O   0  0  0  0  0  0  0  0  0  0  0  0
   -0.6454    5.0744   -5.3181 O   0  0  0  0  0  0  0  0  0  0  0  0
    0.6987    2.6150   -5.8892 O   0  0  0  0  0  0  0  0  0  0  0  0
    0.3704    2.4918   -2.2419 O   0  0  0  0  0  0  0  0  0  0  0  0
    1.8166    0.1088   -2.7019 O   0  0  0  0  0  0  0  0  0  0  0  0
   -0.7582    3.6314   -1.0471 H   0  0  0  0  0  0  0  0  0  0  0  0
   -0.0473    5.1287   -2.7505 H   0  0  0  0  0  0  0  0  0  0  0  0
   -1.5769    3.3621   -4.7610 H   0  0  0  0  0  0  0  0  0  0  0  0
    1.4469    3.7744   -4.3311 H   0  0  0  0  0  0  0  0  0  0  0  0
   -0.2757    1.2859   -3.7949 H   0  0  0  0  0  0  0  0  0  0  0  0
    1.9993    0.7770   -4.6372 H   0  0  0  0  0  0  0  0  0  0  0  0
    2.6877    1.8590   -3.3938 H   0  0  0  0  0  0  0  0  0  0  0  0
   -2.3891    5.0222   -1.9252 H   0  0  0  0  0  0  0  0  0  0  0  0
   -1.3509    5.6759   -4.9987 H   0  0  0  0  0  0  0  0  0  0  0  0
   -4.2938    0.6330    0.8469 C   0  0  2  0  0  0  0  0  0  0  0  0
   -3.6491    1.9810    1.1796 C   0  0  1  0  0  0  0  0  0  0  0  0
   -3.2481    2.6818   -0.1225 C   0  0  2  0  0  0  0  0  0  0  0  0
   -2.3086    1.7664   -0.9137 C   0  0  1  0  0  0  0  0  0  0  0  0
   -3.0047    0.4272   -1.1648 C   0  0  1  0  0  0  0  0  0  0  0  0
   -2.0508   -0.5138   -1.9024 C   0  0  0  0  0  0  0  0  0  0  0  0
   -4.5829    2.7945    1.8920 O   0  0  0  0  0  0  0  0  0  0  0  0
   -2.5787    3.9075    0.1807 O   0  0  0  0  0  0  0  0  0  0  0  0
   -1.9856    2.3796   -2.1635 O   0  0  0  0  0  0  0  0  0  0  0  0
   -3.3782   -0.1564    0.0847 O   0  0  0  0  0  0  0  0  0  0  0  0
   -2.7373   -1.7207   -2.2407 O   0  0  0  0  0  0  0  0  0  0  0  0
   -4.4579    0.1089    1.7968 H   0  0  0  0  0  0  0  0  0  0  0  0
   -2.7659    1.8496    1.8157 H   0  0  0  0  0  0  0  0  0  0  0  0
   -4.1272    2.9571   -0.7175 H   0  0  0  0  0  0  0  0  0  0  0  0
   -1.3917    1.5886   -0.3325 H   0  0  0  0  0  0  0  0  0  0  0  0
   -3.8995    0.5580   -1.7870 H   0  0  0  0  0  0  0  0  0  0  0  0
   -1.6913   -0.0795   -2.8361 H   0  0  0  0  0  0  0  0  0  0  0  0
   -1.1991   -0.7830   -1.2688 H   0  0  0  0  0  0  0  0  0  0  0  0
   -5.4538    2.6285    1.4787 H   0  0  0  0  0  0  0  0  0  0  0  0
   -3.0686    4.2932    0.9369 H   0  0  0  0  0  0  0  0  0  0  0  0
   -2.0787   -2.3466   -2.5836 H   0  0  0  0  0  0  0  0  0  0  0  0
    9.8966    6.3972    7.0397 C   0  0  2  0  0  0  0  0  0  0  0  0
   10.1685    7.7893    6.4643 C   0  0  1  0  0  0  0  0  0  0  0  0
   11.5393    7.7916    5.7800 C   0  0  2  0  0  0  0  0  0  0  0  0
   12.6045    7.3621    6.7937 C   0  0  1  0  0  0  0  0  0  0  0  0
   12.2380    5.9874    7.3565 C   0  0  1  0  0  0  0  0  0  0  0  0
   13.2651    5.5780    8.4134 C   0  0  0  0  0  0  0  0  0  0  0  0
    9.1574    8.1178    5.5098 O   0  0  0  0  0  0  0  0  0  0  0  0
   11.8341    9.1066    5.3045 O   0  0  0  0  0  0  0  0  0  0  0  0
   13.8771    7.2911    6.1475 O   0  0  0  0  0  0  0  0  0  0  0  0
   10.9404    6.0472    7.9511 O   0  0  0  0  0  0  0  0  0  0  0  0
   12.9912    4.2466    8.8548 O   0  0  0  0  0  0  0  0  0  0  0  0
    9.0133    6.5044    7.6723 H   0  0  0  0  0  0  0  0  0  0  0  0
   10.1465    8.5508    7.2529 H   0  0  0  0  0  0  0  0  0  0  0  0
   11.5487    7.1408    4.8972 H   0  0  0  0  0  0  0  0  0  0  0  0
   12.6809    8.1116    7.5913 H   0  0  0  0  0  0  0  0  0  0  0  0
   12.2441    5.2296    6.5661 H   0  0  0  0  0  0  0  0  0  0  0  0
   14.2858    5.5935    8.0203 H   0  0  0  0  0  0  0  0  0  0  0  0
   13.2022    6.2334    9.2887 H   0  0  0  0  0  0  0  0  0  0  0  0
    8.3442    7.6341    5.7617 H   0  0  0  0  0  0  0  0  0  0  0  0
   11.0256    9.3883    4.8287 H   0  0  0  0  0  0  0  0  0  0  0  0
   13.9361    8.1095    5.6128 H   0  0  0  0  0  0  0  0  0  0  0  0
   13.6044    4.0658    9.5875 H   0  0  0  0  0  0  0  0  0  0  0  0
    6.8136    2.3638    5.9134 C   0  0  2  0  0  0  0  0  0  0  0  0
    6.3979    3.6676    6.5991 C   0  0  1  0  0  0  0  0  0  0  0  0
    7.3530    4.7870    6.1723 C   0  0  2  0  0  0  0  0  0  0  0  0
    8.7881    4.3786    6.5190 C   0  0  1  0  0  0  0  0  0  0  0  0
    9.1109    3.0475    5.8371 C   0  0  1  0  0  0  0  0  0  0  0  0
   10.5217    2.6031    6.2266 C   0  0  0  0  0  0  0  0  0  0  0  0
    5.0638    4.0054    6.2150 O   0  0  0  0  0  0  0  0  0  0  0  0
    7.0178    5.9914    6.8647 O   0  0  0  0  0  0  0  0  0  0  0  0
    9.6944    5.3837    6.0599 O   0  0  0  0  0  0  0  0  0  0  0  0
    8.1678    2.0585    6.2536 O   0  0  0  0  0  0  0  0  0  0  0  0
   10.8681    1.4224    5.4997 O   0  0  0  0  0  0  0  0  0  0  0  0
    6.2320    1.5758    6.3958 H   0  0  0  0  0  0  0  0  0  0  0  0
    6.4164    3.5602    7.6902 H   0  0  0  0  0  0  0  0  0  0  0  0
    7.2535    5.0143    5.1041 H   0  0  0  0  0  0  0  0  0  0  0  0
    8.8826    4.2541    7.6079 H   0  0  0  0  0  0  0  0  0  0  0  0
    9.0762    3.1506    4.7474 H   0  0  0  0  0  0  0  0  0  0  0  0
   11.2683    3.3593    5.9810 H   0  0  0  0  0  0  0  0  0  0  0  0
   10.5753    2.3641    7.2940 H   0  0  0  0  0  0  0  0  0  0  0  0
    4.6001    3.1715    5.9934 H   0  0  0  0  0  0  0  0  0  0  0  0
    6.0404    6.0465    6.8028 H   0  0  0  0  0  0  0  0  0  0  0  0
   11.7127    1.1131    5.8711 H   0  0  0  0  0  0  0  0  0  0  0  0
    5.0050   -0.6497    2.0808 C   0  0  2  0  0  0  0  0  0  0  0  0
    4.4674   -0.5710    3.5118 C   0  0  1  0  0  0  0  0  0  0  0  0
    4.7913    0.8081    4.0955 C   0  0  2  0  0  0  0  0  0  0  0  0
    6.3046    1.0361    4.0285 C   0  0  1  0  0  0  0  0  0  0  0  0
    6.7709    0.8946    2.5782 C   0  0  1  0  0  0  0  0  0  0  0  0
    8.2898    1.0618    2.5115 C   0  0  0  0  0  0  0  0  0  0  0  0
    3.0519   -0.7652    3.5020 O   0  0  0  0  0  0  0  0  0  0  0  0
    4.3586    0.8649    5.4564 O   0  0  0  0  0  0  0  0  0  0  0  0
    6.6109    2.3486    4.5039 O   0  0  0  0  0  0  0  0  0  0  0  0
    6.4119   -0.3980    2.0869 O   0  0  0  0  0  0  0  0  0  0  0  0
    8.7124    1.0469    1.1464 O   0  0  0  0  0  0  0  0  0  0  0  0
    4.9217   -1.6985    1.7894 H   0  0  0  0  0  0  0  0  0  0  0  0
    4.9095   -1.3528    4.1408 H   0  0  0  0  0  0  0  0  0  0  0  0
    4.2476    1.6036    3.5718 H   0  0  0  0  0  0  0  0  0  0  0  0
    6.8181    0.2825    4.6438 H   0  0  0  0  0  0  0  0  0  0  0  0
    6.3164    1.6653    1.9469 H   0  0  0  0  0  0  0  0  0  0  0  0
    8.6131    2.0136    2.9349 H   0  0  0  0  0  0  0  0  0  0  0  0
    8.7964    0.2381    3.0254 H   0  0  0  0  0  0  0  0  0  0  0  0
    2.8421   -1.3551    2.7491 H   0  0  0  0  0  0  0  0  0  0  0  0
    3.4684    0.4531    5.4494 H   0  0  0  0  0  0  0  0  0  0  0  0
    9.6850    1.0246    1.1632 H   0  0  0  0  0  0  0  0  0  0  0  0
    3.0143   -0.6613   -2.7233 C   0  0  2  0  0  0  0  0  0  0  0  0
    3.0312   -1.8333   -1.7387 C   0  0  1  0  0  0  0  0  0  0  0  0
    3.0810   -1.2875   -0.3079 C   0  0  2  0  0  0  0  0  0  0  0  0
    4.3097   -0.3849   -0.1600 C   0  0  1  0  0  0  0  0  0  0  0  0
    4.2436    0.7302   -1.2056 C   0  0  1  0  0  0  0  0  0  0  0  0
    5.4971    1.6009   -1.1035 C   0  0  0  0  0  0  0  0  0  0  0  0
    1.8497   -2.6182   -1.9098 O   0  0  0  0  0  0  0  0  0  0  0  0
    3.1716   -2.3744    0.6155 O   0  0  0  0  0  0  0  0  0  0  0  0
    4.3267    0.1873    1.1495 O   0  0  0  0  0  0  0  0  0  0  0  0
    4.1685    0.1544   -2.5110 O   0  0  0  0  0  0  0  0  0  0  0  0
    5.3825    2.7095   -1.9980 O   0  0  0  0  0  0  0  0  0  0  0  0
    3.0998   -1.0841   -3.7322 H   0  0  0  0  0  0  0  0  0  0  0  0
    3.8948   -2.4849   -1.9158 H   0  0  0  0  0  0  0  0  0  0  0  0
    2.1605   -0.7493   -0.0512 H   0  0  0  0  0  0  0  0  0  0  0  0
    5.2227   -0.9758   -0.3254 H   0  0  0  0  0  0  0  0  0  0  0  0
    3.3701    1.3742   -1.0410 H   0  0  0  0  0  0  0  0  0  0  0  0
    5.6274    2.0120   -0.1017 H   0  0  0  0  0  0  0  0  0  0  0  0
    6.3895    1.0340   -1.3890 H   0  0  0  0  0  0  0  0  0  0  0  0
    1.1270   -1.9816   -2.0821 H   0  0  0  0  0  0  0  0  0  0  0  0
    2.5733   -3.0661    0.2633 H   0  0  0  0  0  0  0  0  0  0  0  0
    6.2573    3.1314   -2.0319 H   0  0  0  0  0  0  0  0  0  0  0  0
  1  2  1  0
  1 10  1  0
  1 12  1  1
  2  3  1  0
  2  7  1  0
  2 13  1  1
  3  4  1  0
  3  8  1  0
  3 14  1  6
  4  5  1  0
  4  9  1  0
  4 15  1  1
  5  6  1  0
  5 10  1  0
  5 16  1  6
  6 11  1  0
  6 17  1  0
  6 18  1  0
  7 19  1  0
  8 20  1  0
  9 21  1  0
 11 22  1  0
 23 24  1  0
 23 32  1  0
 23 34  1  1
 24 25  1  0
 24 29  1  0
 24 35  1  1
 25 26  1  0
 25 30  1  0
 25 36  1  6
 26 27  1  0
 26 31  1  0
 26 37  1  1
 27 28  1  0
 27 32  1  0
 27 38  1  6
 28 33  1  0
 28 39  1  0
 28 40  1  0
 29 41  1  0
 30 42  1  0
 33 43  1  0
 44 45  1  0
 44 53  1  0
 44 55  1  6
 45 46  1  0
 45 50  1  0
 45 56  1  1
 46 47  1  0
 46 51  1  0
 46 57  1  6
 47 48  1  0
 47 52  1  0
 47 58  1  1
 48 49  1  0
 48 53  1  0
 48 59  1  6
 49 54  1  0
 49 60  1  0
 49 61  1  0
 50 62  1  0
 51 63  1  0
 54 64  1  0
 65 66  1  0
 65 74  1  0
 65 76  1  6
 66 67  1  0
 66 71  1  0
 66 77  1  6
 67 68  1  0
 67 72  1  0
 67 78  1  1
 68 69  1  0
 68 73  1  0
 68 79  1  6
 69 70  1  0
 69 74  1  0
 69 80  1  1
 70 75  1  0
 70 81  1  0
 70 82  1  0
 71 83  1  0
 72 84  1  0
 75 85  1  0
 86 87  1  0
 86 95  1  0
 86 97  1  6
 87 88  1  0
 87 92  1  0
 87 98  1  6
 88 89  1  0
 88 93  1  0
 88 99  1  1
 89 90  1  0
 89 94  1  0
 89100  1  6
 90 91  1  0
 90 95  1  0
 90101  1  1
 91 96  1  0
 91102  1  0
 91103  1  0
 92104  1  0
 93105  1  0
106107  1  0
106115  1  0
106117  1  6
107108  1  0
107112  1  0
107118  1  6
108109  1  0
108113  1  0
108119  1  1
109110  1  0
109114  1  0
109120  1  6
110111  1  0
110115  1  0
110121  1  1
111116  1  0
111122  1  0
111123  1  0
112124  1  0
113125  1  0
116126  1  0
127128  1  0
127133  1  0
127137  1  0
127139  1  1
128129  1  0
128134  1  0
128140  1  1
129130  1  0
129135  1  0
129141  1  6
130131  1  0
130136  1  0
130142  1  1
131132  1  0
131137  1  0
131143  1  6
132138  1  0
132144  1  0
132145  1  0
133146  1  0
134147  1  0
135148  1  0
138149  1  0
150151  1  0
150159  1  0
150161  1  6
151152  1  0
151156  1  0
151162  1  6
152153  1  0
152157  1  0
152163  1  1
153154  1  0
153158  1  0
153164  1  6
154155  1  0
154159  1  0
154165  1  1
155160  1  0
155166  1  0
155167  1  0
156168  1  0
157169  1  0
158170  1  0
160171  1  0
172173  1  0
172181  1  0
172183  1  6
173174  1  0
173178  1  0
173184  1  6
174175  1  0
174179  1  0
174185  1  1
175176  1  0
175180  1  0
175186  1  6
176177  1  0
176181  1  0
176187  1  1
177182  1  0
177188  1  0
177189  1  0
178190  1  0
179191  1  0
182192  1  0
193194  1  0
193202  1  0
193204  1  1
194195  1  0
194199  1  0
194205  1  6
195196  1  0
195200  1  0
195206  1  1
196197  1  0
196201  1  0
196207  1  6
197198  1  0
197202  1  0
197208  1  1
198203  1  0
198209  1  0
198210  1  0
199211  1  0
200212  1  0
203213  1  0
214215  1  0
214223  1  0
214225  1  1
215216  1  0
215220  1  0
215226  1  1
216217  1  0
216221  1  0
216227  1  6
217218  1  0
217222  1  0
217228  1  1
218219  1  0
218223  1  0
218229  1  6
219224  1  0
219230  1  0
219231  1  0
220232  1  0
221233  1  0
234235  1  0
234243  1  0
234245  1  1
235236  1  0
235240  1  0
235246  1  1
236237  1  0
236241  1  0
236247  1  6
237238  1  0
237242  1  0
237248  1  1
238239  1  0
238243  1  0
238249  1  6
239244  1  0
239250  1  0
239251  1  0
240252  1  0
241253  1  0
244254  1  0
255256  1  0
255264  1  0
255266  1  1
256257  1  0
256261  1  0
256267  1  1
257258  1  0
257262  1  0
257268  1  6
258259  1  0
258263  1  0
258269  1  1
259260  1  0
259264  1  0
259270  1  6
260265  1  0
260271  1  0
260272  1  0
261273  1  0
262274  1  0
263275  1  0
265276  1  0
277278  1  0
277286  1  0
277288  1  1
278279  1  0
278283  1  0
278289  1  1
279280  1  0
279284  1  0
279290  1  6
280281  1  0
280285  1  0
280291  1  1
281282  1  0
281286  1  0
281292  1  6
282287  1  0
282293  1  0
282294  1  0
283295  1  0
284296  1  0
287297  1  0
298299  1  0
298307  1  0
298309  1  6
299300  1  0
299304  1  0
299310  1  1
300301  1  0
300305  1  0
300311  1  6
301302  1  0
301306  1  0
301312  1  1
302303  1  0
302307  1  0
302313  1  6
303308  1  0
303314  1  0
303315  1  0
304316  1  0
305317  1  0
308318  1  0
319320  1  0
319328  1  0
319330  1  6
320321  1  0
320325  1  0
320331  1  6
321322  1  0
321326  1  0
321332  1  1
322323  1  0
322327  1  0
322333  1  6
323324  1  0
323328  1  0
323334  1  1
324329  1  0
324335  1  0
324336  1  0
325337  1  0
326338  1  0
329339  1  0
  1 31  1  0
 23 52  1  0
 44 73  1  0
 65 94  1  0
 86114  1  0
106136  1  0
150180  1  0
172201  1  0
193222  1  0
214242  1  0
234 96  1  0
255285  1  0
277306  1  0
298327  1  0
319224  1  0
M  END

$$$$
