
     RDKit          3D

 45 46  0  0  0  0  0  0  0  0999 V2000
    0.6855   -0.9675   -0.8423 C   0  0  2  0  0  0  0  0  0  0  0  0
   -0.7619   -0.5519   -1.1227 C   0  0  2  0  0  0  0  0  0  0  0  0
   -1.4331   -0.1551    0.1964 C   0  0  1  0  0  0  0  0  0  0  0  0
   -0.6236    0.9653    0.8545 C   0  0  1  0  0  0  0  0  0  0  0  0
   -1.2531    1.3260    2.2014 C   0  0  0  0  0  0  0  0  0  0  0  0
    1.4126    0.1851   -0.1444 C   0  0  2  0  0  0  0  0  0  0  0  0
    2.7472   -0.2152    0.1713 O   0  0  0  0  0  0  0  0  0  0  0  0
    1.3424   -1.2696   -2.0752 O   0  0  0  0  0  0  0  0  0  0  0  0
   -1.4695   -1.6469   -1.7083 O   0  0  0  0  0  0  0  0  0  0  0  0
   -2.7614    0.3026   -0.0618 O   0  0  0  0  0  0  0  0  0  0  0  0
    0.7205    0.5242    1.0585 O   0  0  0  0  0  0  0  0  0  0  0  0
   -0.5691    2.4482    2.7614 O   0  0  0  0  0  0  0  0  0  0  0  0
   -3.7486   -0.7288   -0.0290 C   0  0  1  0  0  0  0  0  0  0  0  0
   -5.1399   -0.1112   -0.1934 C   0  0  1  0  0  0  0  0  0  0  0  0
   -6.1876   -1.2274   -0.2163 C   0  0  2  0  0  0  0  0  0  0  0  0
   -5.8491   -2.2068   -1.3449 C   0  0  2  0  0  0  0  0  0  0  0  0
   -4.4309   -2.7440   -1.1353 C   0  0  1  0  0  0  0  0  0  0  0  0
   -4.0637   -3.6766   -2.2916 C   0  0  0  0  0  0  0  0  0  0  0  0
   -5.4032    0.7691    0.9017 O   0  0  0  0  0  0  0  0  0  0  0  0
   -7.4812   -0.6654   -0.4433 O   0  0  0  0  0  0  0  0  0  0  0  0
   -5.9227   -1.5304   -2.6015 O   0  0  0  0  0  0  0  0  0  0  0  0
   -3.5104   -1.6524   -1.0934 O   0  0  0  0  0  0  0  0  0  0  0  0
   -2.7881   -4.2694   -2.0391 O   0  0  0  0  0  0  0  0  0  0  0  0
    0.6933   -1.8464   -0.1983 H   0  0  0  0  0  0  0  0  0  0  0  0
   -0.7719    0.2963   -1.8071 H   0  0  0  0  0  0  0  0  0  0  0  0
   -1.4684   -1.0191    0.8605 H   0  0  0  0  0  0  0  0  0  0  0  0
   -0.6237    1.8423    0.2072 H   0  0  0  0  0  0  0  0  0  0  0  0
   -1.1727    0.4753    2.8797 H   0  0  0  0  0  0  0  0  0  0  0  0
   -2.3044    1.5761    2.0562 H   0  0  0  0  0  0  0  0  0  0  0  0
    1.4389    1.0513   -0.8049 H   0  0  0  0  0  0  0  0  0  0  0  0
    3.2679    0.4673    0.6167 H   0  0  0  0  0  0  0  0  0  0  0  0
    2.2663   -1.5358   -1.9730 H   0  0  0  0  0  0  0  0  0  0  0  0
   -1.0943   -1.9551   -2.5440 H   0  0  0  0  0  0  0  0  0  0  0  0
   -0.9154    2.7324    3.6187 H   0  0  0  0  0  0  0  0  0  0  0  0
   -3.6945   -1.2532    0.9257 H   0  0  0  0  0  0  0  0  0  0  0  0
   -5.1818    0.4477   -1.1286 H   0  0  0  0  0  0  0  0  0  0  0  0
   -6.1809   -1.7538    0.7383 H   0  0  0  0  0  0  0  0  0  0  0  0
   -6.5586   -3.0340   -1.3350 H   0  0  0  0  0  0  0  0  0  0  0  0
   -4.3859   -3.2943   -0.1966 H   0  0  0  0  0  0  0  0  0  0  0  0
   -4.0219   -3.1066   -3.2201 H   0  0  0  0  0  0  0  0  0  0  0  0
   -4.8161   -4.4601   -2.3805 H   0  0  0  0  0  0  0  0  0  0  0  0
   -4.7744    1.4992    0.9798 H   0  0  0  0  0  0  0  0  0  0  0  0
   -7.7579   -0.0288    0.2308 H   0  0  0  0  0  0  0  0  0  0  0  0
   -6.7944   -1.1593   -2.7984 H   0  0  0  0  0  0  0  0  0  0  0  0
   -2.4909   -4.8739   -2.7324 H   0  0  0  0  0  0  0  0  0  0  0  0
  7  6  1  0
  6 11  1  0
  6  1  1  0
 11  4  1  0
  8  1  1  0
  1  2  1  0
 23 18  1  0
 12  5  1  0
  4  5  1  0
  4  3  1  0
  2  9  1  0
  2  3  1  0
  3 10  1  0
 18 17  1  0
 22 17  1  0
 22 13  1  0
 17 16  1  0
 10 13  1  0
 13 14  1  0
 16 21  1  0
 16 15  1  0
 14 15  1  0
 14 19  1  0
 15 20  1  0
 13 35  1  1
 14 36  1  6
 15 37  1  1
 16 38  1  6
 17 39  1  1
 18 41  1  0
 18 40  1  0
 19 42  1  0
 20 43  1  0
 21 44  1  0
 23 45  1  0
  6 30  1  6
  1 24  1  1
  2 25  1  6
  3 26  1  1
  4 27  1  6
  5 29  1  0
  5 28  1  0
  7 31  1  0
  8 32  1  0
  9 33  1  0
 12 34  1  0
M  END

$$$$
