
     RDKit          3D

 45 46  0  0  0  0  0  0  0  0999 V2000
    1.4121    0.1848   -0.1444 C   0  0  1  0  0  0  0  0  0  0  0  0
    0.6852   -0.9671   -0.8420 C   0  0  1  0  0  0  0  0  0  0  0  0
   -0.7622   -0.5518   -1.1227 C   0  0  2  0  0  0  0  0  0  0  0  0
   -1.4320   -0.1556    0.1963 C   0  0  1  0  0  0  0  0  0  0  0  0
   -0.6236    0.9657    0.8540 C   0  0  1  0  0  0  0  0  0  0  0  0
   -1.2531    1.3262    2.2009 C   0  0  0  0  0  0  0  0  0  0  0  0
    1.4471    1.3206   -1.0107 O   0  0  0  0  0  0  0  0  0  0  0  0
    1.3425   -1.2698   -2.0739 O   0  0  0  0  0  0  0  0  0  0  0  0
   -1.4679   -1.6468   -1.7096 O   0  0  0  0  0  0  0  0  0  0  0  0
   -2.7616    0.3026   -0.0626 O   0  0  0  0  0  0  0  0  0  0  0  0
    0.7205    0.5240    1.0587 O   0  0  0  0  0  0  0  0  0  0  0  0
   -0.5457    2.4256    2.7788 O   0  0  0  0  0  0  0  0  0  0  0  0
   -3.7350   -0.7413   -0.1221 C   0  0  2  0  0  0  0  0  0  0  0  0
   -5.0386   -0.1906   -0.7063 C   0  0  1  0  0  0  0  0  0  0  0  0
   -5.5832    0.9001    0.2196 C   0  0  2  0  0  0  0  0  0  0  0  0
   -5.7764    0.3153    1.6228 C   0  0  1  0  0  0  0  0  0  0  0  0
   -4.4440   -0.2547    2.1163 C   0  0  1  0  0  0  0  0  0  0  0  0
   -4.6418   -0.8941    3.4928 C   0  0  0  0  0  0  0  0  0  0  0  0
   -4.7860    0.3616   -1.9995 O   0  0  0  0  0  0  0  0  0  0  0  0
   -6.8375    1.3689   -0.2796 O   0  0  0  0  0  0  0  0  0  0  0  0
   -6.2158    1.3438    2.5123 O   0  0  0  0  0  0  0  0  0  0  0  0
   -3.9778   -1.2415    1.1944 O   0  0  0  0  0  0  0  0  0  0  0  0
   -3.3782   -1.3223    4.0051 O   0  0  0  0  0  0  0  0  0  0  0  0
    2.4313   -0.1203    0.0954 H   0  0  0  0  0  0  0  0  0  0  0  0
    0.6938   -1.8471   -0.1987 H   0  0  0  0  0  0  0  0  0  0  0  0
   -0.7721    0.2964   -1.8060 H   0  0  0  0  0  0  0  0  0  0  0  0
   -1.4681   -1.0184    0.8619 H   0  0  0  0  0  0  0  0  0  0  0  0
   -0.6232    1.8418    0.2065 H   0  0  0  0  0  0  0  0  0  0  0  0
   -1.1978    0.4675    2.8698 H   0  0  0  0  0  0  0  0  0  0  0  0
   -2.2970    1.6038    2.0519 H   0  0  0  0  0  0  0  0  0  0  0  0
    1.8942    2.0901   -0.6325 H   0  0  0  0  0  0  0  0  0  0  0  0
    2.2665   -1.5364   -1.9726 H   0  0  0  0  0  0  0  0  0  0  0  0
   -1.0926   -1.9536   -2.5469 H   0  0  0  0  0  0  0  0  0  0  0  0
   -0.8909    2.7083    3.6362 H   0  0  0  0  0  0  0  0  0  0  0  0
   -3.3646   -1.5481   -0.7549 H   0  0  0  0  0  0  0  0  0  0  0  0
   -5.7687   -0.9961   -0.7899 H   0  0  0  0  0  0  0  0  0  0  0  0
   -4.8760    1.7286    0.2627 H   0  0  0  0  0  0  0  0  0  0  0  0
   -6.5226   -0.4785    1.5869 H   0  0  0  0  0  0  0  0  0  0  0  0
   -3.7103    0.5481    2.1917 H   0  0  0  0  0  0  0  0  0  0  0  0
   -5.3068   -1.7535    3.4010 H   0  0  0  0  0  0  0  0  0  0  0  0
   -5.0821   -0.1643    4.1727 H   0  0  0  0  0  0  0  0  0  0  0  0
   -4.4337   -0.2739   -2.6370 H   0  0  0  0  0  0  0  0  0  0  0  0
   -6.7907    1.7465   -1.1685 H   0  0  0  0  0  0  0  0  0  0  0  0
   -7.0534    1.7533    2.2569 H   0  0  0  0  0  0  0  0  0  0  0  0
   -3.4282   -1.7383    4.8763 H   0  0  0  0  0  0  0  0  0  0  0  0
 23 18  1  0
 22 13  1  0
 22 17  1  0
 18 17  1  0
  6 12  1  0
  6  5  1  0
 11  5  1  0
 11  1  1  0
 13 10  1  0
 13 14  1  0
  4  5  1  0
  4 10  1  0
  4  3  1  0
  2  1  1  0
  2  3  1  0
  2  8  1  0
 17 16  1  0
  9  3  1  0
  1  7  1  0
 14 19  1  0
 14 15  1  0
 16 15  1  0
 16 21  1  0
 15 20  1  0
 13 35  1  6
 14 36  1  6
 15 37  1  1
 16 38  1  6
 17 39  1  1
 18 41  1  0
 18 40  1  0
 19 42  1  0
 20 43  1  0
 21 44  1  0
 23 45  1  0
  1 24  1  1
  2 25  1  1
  3 26  1  6
  4 27  1  1
  5 28  1  6
  6 30  1  0
  6 29  1  0
  7 31  1  0
  8 32  1  0
  9 33  1  0
 12 34  1  0
M  END

$$$$
