
     RDKit          3D

 45 46  0  0  0  0  0  0  0  0999 V2000
    1.4121    0.1846   -0.1443 C   0  0  2  0  0  0  0  0  0  0  0  0
    0.6854   -0.9675   -0.8428 C   0  0  1  0  0  0  0  0  0  0  0  0
   -0.7617   -0.5518   -1.1228 C   0  0  2  0  0  0  0  0  0  0  0  0
   -1.4325   -0.1554    0.1968 C   0  0  1  0  0  0  0  0  0  0  0  0
   -0.6239    0.9659    0.8542 C   0  0  1  0  0  0  0  0  0  0  0  0
   -1.2533    1.3266    2.2014 C   0  0  0  0  0  0  0  0  0  0  0  0
    1.3419   -1.2702   -2.0742 O   0  0  0  0  0  0  0  0  0  0  0  0
   -1.4693   -1.6469   -1.7077 O   0  0  0  0  0  0  0  0  0  0  0  0
   -2.7617    0.3031   -0.0619 O   0  0  0  0  0  0  0  0  0  0  0  0
    0.7205    0.5243    1.0589 O   0  0  0  0  0  0  0  0  0  0  0  0
   -0.5691    2.4494    2.7615 O   0  0  0  0  0  0  0  0  0  0  0  0
    3.6920    1.8636   -0.2776 C   0  0  0  0  0  0  0  0  0  0  0  0
    2.2777    2.3853   -0.5412 C   0  0  1  0  0  0  0  0  0  0  0  0
    2.3227    3.5155   -1.5870 C   0  0  2  0  0  0  0  0  0  0  0  0
    1.7964    4.7573   -0.8269 C   0  0  1  0  0  0  0  0  0  0  0  0
    2.0253    4.3537    0.6523 C   0  0  1  0  0  0  0  0  0  0  0  0
    1.0717    5.1162    1.5739 C   0  0  0  0  0  0  0  0  0  0  0  0
    3.6676    0.9636    0.8325 O   0  0  0  0  0  0  0  0  0  0  0  0
    1.4475    1.3209   -1.0109 O   0  0  0  0  0  0  0  0  0  0  0  0
    1.4708    3.2084   -2.6928 O   0  0  0  0  0  0  0  0  0  0  0  0
    2.5561    5.9203   -1.1617 O   0  0  0  0  0  0  0  0  0  0  0  0
    1.7272    2.9368    0.6672 O   0  0  0  0  0  0  0  0  0  0  0  0
    1.3813    4.8145    2.9351 O   0  0  0  0  0  0  0  0  0  0  0  0
    2.4308   -0.1210    0.0961 H   0  0  0  0  0  0  0  0  0  0  0  0
    0.6941   -1.8471   -0.1987 H   0  0  0  0  0  0  0  0  0  0  0  0
   -0.7721    0.2960   -1.8072 H   0  0  0  0  0  0  0  0  0  0  0  0
   -1.4679   -1.0184    0.8607 H   0  0  0  0  0  0  0  0  0  0  0  0
   -0.6234    1.8424    0.2063 H   0  0  0  0  0  0  0  0  0  0  0  0
   -2.3040    1.5764    2.0559 H   0  0  0  0  0  0  0  0  0  0  0  0
   -1.1728    0.4767    2.8790 H   0  0  0  0  0  0  0  0  0  0  0  0
    2.2660   -1.5365   -1.9733 H   0  0  0  0  0  0  0  0  0  0  0  0
   -1.0948   -1.9558   -2.5438 H   0  0  0  0  0  0  0  0  0  0  0  0
   -3.3299   -0.3554   -0.4838 H   0  0  0  0  0  0  0  0  0  0  0  0
   -0.9153    2.7334    3.6178 H   0  0  0  0  0  0  0  0  0  0  0  0
    4.0571    1.3407   -1.1615 H   0  0  0  0  0  0  0  0  0  0  0  0
    4.3517    2.7008   -0.0515 H   0  0  0  0  0  0  0  0  0  0  0  0
    3.3446    3.6793   -1.9274 H   0  0  0  0  0  0  0  0  0  0  0  0
    0.7360    4.9154   -1.0268 H   0  0  0  0  0  0  0  0  0  0  0  0
    3.0614    4.5306    0.9423 H   0  0  0  0  0  0  0  0  0  0  0  0
    1.1822    6.1877    1.4045 H   0  0  0  0  0  0  0  0  0  0  0  0
    0.0450    4.8196    1.3603 H   0  0  0  0  0  0  0  0  0  0  0  0
    4.5329    0.5931    1.0562 H   0  0  0  0  0  0  0  0  0  0  0  0
    1.4604    3.8865   -3.3816 H   0  0  0  0  0  0  0  0  0  0  0  0
    2.2640    6.7237   -0.7100 H   0  0  0  0  0  0  0  0  0  0  0  0
    0.8143    5.2652    3.5769 H   0  0  0  0  0  0  0  0  0  0  0  0
 23 17  1  0
 17 16  1  0
 22 16  1  0
 22 13  1  0
 18 12  1  0
 16 15  1  0
 11  6  1  0
 10  1  1  0
 10  5  1  0
 12 13  1  0
  1  2  1  0
  1 19  1  0
 13 19  1  6
 13 14  1  0
  6  5  1  0
  2  7  1  0
  2  3  1  0
 15 14  1  0
 15 21  1  0
  5  4  1  0
 14 20  1  0
  4  3  1  0
  4  9  1  0
  3  8  1  0
  1 24  1  1
  2 25  1  1
  3 26  1  6
  4 27  1  1
  5 28  1  6
  6 29  1  0
  6 30  1  0
  7 31  1  0
  8 32  1  0
  9 33  1  0
 11 34  1  0
 12 35  1  0
 12 36  1  0
 14 37  1  6
 15 38  1  1
 16 39  1  1
 17 40  1  0
 17 41  1  0
 18 42  1  0
 20 43  1  0
 21 44  1  0
 23 45  1  0
M  END

$$$$
